; Filename: nodes_and_inps/20x20.inp
; WNTR: 1.4.0
; Created: 2025-11-04 18:13:26
[TITLE]
20x20 grid WDN with central reservoir R1 replacing J210
Generated programmatically per user specification

[JUNCTIONS]
;ID                      Elevation       Demand Pattern                 
 J1                                 0               0                            ;
 J2                                 0               0                            ;
 J3                                 0               0                            ;
 J4                                 0               0                            ;
 J5                                 0               0                            ;
 J6                                 0               0                            ;
 J7                                 0               0                            ;
 J8                                 0               0                            ;
 J9                                 0               0                            ;
 J10                                0               0                            ;
 J11                                0               0                            ;
 J12                                0               0                            ;
 J13                                0               0                            ;
 J14                                0               0                            ;
 J15                                0               0                            ;
 J16                                0               0                            ;
 J17                                0               0                            ;
 J18                                0               0                            ;
 J19                                0               0                            ;
 J20                                0               0                            ;
 J21                                0               0                            ;
 J22                                0               0                            ;
 J23                                0               0                            ;
 J24                                0               0                            ;
 J25                                0               0                            ;
 J26                                0               0                            ;
 J27                                0               0                            ;
 J28                                0               0                            ;
 J29                                0               0                            ;
 J30                                0               0                            ;
 J31                                0               0                            ;
 J32                                0               0                            ;
 J33                                0               0                            ;
 J34                                0               0                            ;
 J35                                0               0                            ;
 J36                                0               0                            ;
 J37                                0               0                            ;
 J38                                0               0                            ;
 J39                                0               0                            ;
 J40                                0               0                            ;
 J41                                0               0                            ;
 J42                                0               0                            ;
 J43                                0               0                            ;
 J44                                0               0                            ;
 J45                                0               0                            ;
 J46                                0               0                            ;
 J47                                0               0                            ;
 J48                                0               0                            ;
 J49                                0               0                            ;
 J50                                0               0                            ;
 J51                                0               0                            ;
 J52                                0               0                            ;
 J53                                0               0                            ;
 J54                                0               0                            ;
 J55                                0               0                            ;
 J56                                0               0                            ;
 J57                                0               0                            ;
 J58                                0               0                            ;
 J59                                0               0                            ;
 J60                                0               0                            ;
 J61                                0               0                            ;
 J62                                0               0                            ;
 J63                                0               0                            ;
 J64                                0               0                            ;
 J65                                0               0                            ;
 J66                                0               0                            ;
 J67                                0               0                            ;
 J68                                0               0                            ;
 J69                                0               0                            ;
 J70                                0               0                            ;
 J71                                0               0                            ;
 J72                                0               0                            ;
 J73                                0               0                            ;
 J74                                0               0                            ;
 J75                                0               0                            ;
 J76                                0               0                            ;
 J77                                0               0                            ;
 J78                                0               0                            ;
 J79                                0               0                            ;
 J80                                0               0                            ;
 J81                                0               0                            ;
 J82                                0               0                            ;
 J83                                0               0                            ;
 J84                                0               0                            ;
 J85                                0               0                            ;
 J86                                0               0                            ;
 J87                                0               0                            ;
 J88                                0               0                            ;
 J89                                0               0                            ;
 J90                                0               0                            ;
 J91                                0               0                            ;
 J92                                0               0                            ;
 J93                                0               0                            ;
 J94                                0               0                            ;
 J95                                0               0                            ;
 J96                                0               0                            ;
 J97                                0               0                            ;
 J98                                0               0                            ;
 J99                                0               0                            ;
 J100                               0               0                            ;
 J101                               0               0                            ;
 J102                               0               0                            ;
 J103                               0               0                            ;
 J104                               0               0                            ;
 J105                               0               0                            ;
 J106                               0               0                            ;
 J107                               0               0                            ;
 J108                               0               0                            ;
 J109                               0               0                            ;
 J110                               0               0                            ;
 J111                               0               0                            ;
 J112                               0               0                            ;
 J113                               0               0                            ;
 J114                               0               0                            ;
 J115                               0               0                            ;
 J116                               0               0                            ;
 J117                               0               0                            ;
 J118                               0               0                            ;
 J119                               0               0                            ;
 J120                               0               0                            ;
 J121                               0               0                            ;
 J122                               0               0                            ;
 J123                               0               0                            ;
 J124                               0               0                            ;
 J125                               0               0                            ;
 J126                               0               0                            ;
 J127                               0               0                            ;
 J128                               0               0                            ;
 J129                               0               0                            ;
 J130                               0               0                            ;
 J131                               0               0                            ;
 J132                               0               0                            ;
 J133                               0               0                            ;
 J134                               0               0                            ;
 J135                               0               0                            ;
 J136                               0               0                            ;
 J137                               0               0                            ;
 J138                               0               0                            ;
 J139                               0               0                            ;
 J140                               0               0                            ;
 J141                               0               0                            ;
 J142                               0               0                            ;
 J143                               0               0                            ;
 J144                               0               0                            ;
 J145                               0               0                            ;
 J146                               0               0                            ;
 J147                               0               0                            ;
 J148                               0               0                            ;
 J149                               0               0                            ;
 J150                               0               0                            ;
 J151                               0               0                            ;
 J152                               0               0                            ;
 J153                               0               0                            ;
 J154                               0               0                            ;
 J155                               0               0                            ;
 J156                               0               0                            ;
 J157                               0               0                            ;
 J158                               0               0                            ;
 J159                               0               0                            ;
 J160                               0               0                            ;
 J161                               0               0                            ;
 J162                               0               0                            ;
 J163                               0               0                            ;
 J164                               0               0                            ;
 J165                               0               0                            ;
 J166                               0               0                            ;
 J167                               0               0                            ;
 J168                               0               0                            ;
 J169                               0               0                            ;
 J170                               0               0                            ;
 J171                               0               0                            ;
 J172                               0               0                            ;
 J173                               0               0                            ;
 J174                               0               0                            ;
 J175                               0               0                            ;
 J176                               0               0                            ;
 J177                               0               0                            ;
 J178                               0               0                            ;
 J179                               0               0                            ;
 J180                               0               0                            ;
 J181                               0               0                            ;
 J182                               0               0                            ;
 J183                               0               0                            ;
 J184                               0               0                            ;
 J185                               0               0                            ;
 J186                               0               0                            ;
 J187                               0               0                            ;
 J188                               0               0                            ;
 J189                               0               0                            ;
 J190                               0               0                            ;
 J191                               0               0                            ;
 J192                               0               0                            ;
 J193                               0               0                            ;
 J194                               0               0                            ;
 J195                               0               0                            ;
 J196                               0               0                            ;
 J197                               0               0                            ;
 J198                               0               0                            ;
 J199                               0               0                            ;
 J200                               0               0                            ;
 J201                               0               0                            ;
 J202                               0               0                            ;
 J203                               0               0                            ;
 J204                               0               0                            ;
 J205                               0               0                            ;
 J206                               0               0                            ;
 J207                               0               0                            ;
 J208                               0               0                            ;
 J209                               0               0                            ;
 J211                               0               0                            ;
 J212                               0               0                            ;
 J213                               0               0                            ;
 J214                               0               0                            ;
 J215                               0               0                            ;
 J216                               0               0                            ;
 J217                               0               0                            ;
 J218                               0               0                            ;
 J219                               0               0                            ;
 J220                               0               0                            ;
 J221                               0               0                            ;
 J222                               0               0                            ;
 J223                               0               0                            ;
 J224                               0               0                            ;
 J225                               0               0                            ;
 J226                               0               0                            ;
 J227                               0               0                            ;
 J228                               0               0                            ;
 J229                               0               0                            ;
 J230                               0               0                            ;
 J231                               0               0                            ;
 J232                               0               0                            ;
 J233                               0               0                            ;
 J234                               0               0                            ;
 J235                               0               0                            ;
 J236                               0               0                            ;
 J237                               0               0                            ;
 J238                               0               0                            ;
 J239                               0               0                            ;
 J240                               0               0                            ;
 J241                               0               0                            ;
 J242                               0               0                            ;
 J243                               0               0                            ;
 J244                               0               0                            ;
 J245                               0               0                            ;
 J246                               0               0                            ;
 J247                               0               0                            ;
 J248                               0               0                            ;
 J249                               0               0                            ;
 J250                               0               0                            ;
 J251                               0               0                            ;
 J252                               0               0                            ;
 J253                               0               0                            ;
 J254                               0               0                            ;
 J255                               0               0                            ;
 J256                               0               0                            ;
 J257                               0               0                            ;
 J258                               0               0                            ;
 J259                               0               0                            ;
 J260                               0               0                            ;
 J261                               0               0                            ;
 J262                               0               0                            ;
 J263                               0               0                            ;
 J264                               0               0                            ;
 J265                               0               0                            ;
 J266                               0               0                            ;
 J267                               0               0                            ;
 J268                               0               0                            ;
 J269                               0               0                            ;
 J270                               0               0                            ;
 J271                               0               0                            ;
 J272                               0               0                            ;
 J273                               0               0                            ;
 J274                               0               0                            ;
 J275                               0               0                            ;
 J276                               0               0                            ;
 J277                               0               0                            ;
 J278                               0               0                            ;
 J279                               0               0                            ;
 J280                               0               0                            ;
 J281                               0               0                            ;
 J282                               0               0                            ;
 J283                               0               0                            ;
 J284                               0               0                            ;
 J285                               0               0                            ;
 J286                               0               0                            ;
 J287                               0               0                            ;
 J288                               0               0                            ;
 J289                               0               0                            ;
 J290                               0               0                            ;
 J291                               0               0                            ;
 J292                               0               0                            ;
 J293                               0               0                            ;
 J294                               0               0                            ;
 J295                               0               0                            ;
 J296                               0               0                            ;
 J297                               0               0                            ;
 J298                               0               0                            ;
 J299                               0               0                            ;
 J300                               0               0                            ;
 J301                               0               0                            ;
 J302                               0               0                            ;
 J303                               0               0                            ;
 J304                               0               0                            ;
 J305                               0               0                            ;
 J306                               0               0                            ;
 J307                               0               0                            ;
 J308                               0               0                            ;
 J309                               0               0                            ;
 J310                               0               0                            ;
 J311                               0               0                            ;
 J312                               0               0                            ;
 J313                               0               0                            ;
 J314                               0               0                            ;
 J315                               0               0                            ;
 J316                               0               0                            ;
 J317                               0               0                            ;
 J318                               0               0                            ;
 J319                               0               0                            ;
 J320                               0               0                            ;
 J321                               0               0                            ;
 J322                               0               0                            ;
 J323                               0               0                            ;
 J324                               0               0                            ;
 J325                               0               0                            ;
 J326                               0               0                            ;
 J327                               0               0                            ;
 J328                               0               0                            ;
 J329                               0               0                            ;
 J330                               0               0                            ;
 J331                               0               0                            ;
 J332                               0               0                            ;
 J333                               0               0                            ;
 J334                               0               0                            ;
 J335                               0               0                            ;
 J336                               0               0                            ;
 J337                               0               0                            ;
 J338                               0               0                            ;
 J339                               0               0                            ;
 J340                               0               0                            ;
 J341                               0               0                            ;
 J342                               0               0                            ;
 J343                               0               0                            ;
 J344                               0               0                            ;
 J345                               0               0                            ;
 J346                               0               0                            ;
 J347                               0               0                            ;
 J348                               0               0                            ;
 J349                               0               0                            ;
 J350                               0               0                            ;
 J351                               0               0                            ;
 J352                               0               0                            ;
 J353                               0               0                            ;
 J354                               0               0                            ;
 J355                               0               0                            ;
 J356                               0               0                            ;
 J357                               0               0                            ;
 J358                               0               0                            ;
 J359                               0               0                            ;