[TITLE]
20x20 grid WDN with central reservoir R1 replacing J210
Generated programmatically per user specification

[OPTIONS]
 Units              	GPM
 Headloss           	H-W
 Specific Gravity   	1.000000
 Viscosity          	1
 Trials             	40
 Accuracy           	0.01
 CHECKFREQ          	2
 MAXCHECK           	10
 DAMPLIMIT          	0
 Unbalanced         	Continue 10
 Pattern            	1
 Demand Multiplier  	1.000000
 Emitter Exponent   	0.500000
 Quality            	None mg/L
 Diffusivity        	1
 Tolerance          	0.010000

[REPORT]
Status	Yes
Summary	Yes

[JUNCTIONS]
;ID     Elevation   Demand   Pattern
J1       0.000       0.000   
J2       0.000       0.000   
J3       0.000       0.000   
J4       0.000       0.000   
J5       0.000       0.000   
J6       0.000       0.000   
J7       0.000       0.000   
J8       0.000       0.000   
J9       0.000       0.000   
J10      0.000       0.000   
J11      0.000       0.000   
J12      0.000       0.000   
J13      0.000       0.000   
J14      0.000       0.000   
J15      0.000       0.000   
J16      0.000       0.000   
J17      0.000       0.000   
J18      0.000       0.000   
J19      0.000       0.000   
J20      0.000       0.000   
J21      0.000       0.000   
J22      0.000       0.000   
J23      0.000       0.000   
J24      0.000       0.000   
J25      0.000       0.000   
J26      0.000       0.000   
J27      0.000       0.000   
J28      0.000       0.000   
J29      0.000       0.000   
J30      0.000       0.000   
J31      0.000       0.000   
J32      0.000       0.000   
J33      0.000       0.000   
J34      0.000       0.000   
J35      0.000       0.000   
J36      0.000       0.000   
J37      0.000       0.000   
J38      0.000       0.000   
J39      0.000       0.000   
J40      0.000       0.000   
J41      0.000       0.000   
J42      0.000       0.000   
J43      0.000       0.000   
J44      0.000       0.000   
J45      0.000       0.000   
J46      0.000       0.000   
J47      0.000       0.000   
J48      0.000       0.000   
J49      0.000       0.000   
J50      0.000       0.000   
J51      0.000       0.000   
J52      0.000       0.000   
J53      0.000       0.000   
J54      0.000       0.000   
J55      0.000       0.000   
J56      0.000       0.000   
J57      0.000       0.000   
J58      0.000       0.000   
J59      0.000       0.000   
J60      0.000       0.000   
J61      0.000       0.000   
J62      0.000       0.000   
J63      0.000       0.000   
J64      0.000       0.000   
J65      0.000       0.000   
J66      0.000       0.000   
J67      0.000       0.000   
J68      0.000       0.000   
J69      0.000       0.000   
J70      0.000       0.000   
J71      0.000       0.000   
J72      0.000       0.000   
J73      0.000       0.000   
J74      0.000       0.000   
J75      0.000       0.000   
J76      0.000       0.000   
J77      0.000       0.000   
J78      0.000       0.000   
J79      0.000       0.000   
J80      0.000       0.000   
J81      0.000       0.000   
J82      0.000       0.000   
J83      0.000       0.000   
J84      0.000       0.000   
J85      0.000       0.000   
J86      0.000       0.000   
J87      0.000       0.000   
J88      0.000       0.000   
J89      0.000       0.000   
J90      0.000       0.000   
J91      0.000       0.000   
J92      0.000       0.000   
J93      0.000       0.000   
J94      0.000       0.000   
J95      0.000       0.000   
J96      0.000       0.000   
J97      0.000       0.000   
J98      0.000       0.000   
J99      0.000       0.000   
J100     0.000       0.000   
J101     0.000       0.000   
J102     0.000       0.000   
J103     0.000       0.000   
J104     0.000       0.000   
J105     0.000       0.000   
J106     0.000       0.000   
J107     0.000       0.000   
J108     0.000       0.000   
J109     0.000       0.000   
J110     0.000       0.000   
J111     0.000       0.000   
J112     0.000       0.000   
J113     0.000       0.000   
J114     0.000       0.000   
J115     0.000       0.000   
J116     0.000       0.000   
J117     0.000       0.000   
J118     0.000       0.000   
J119     0.000       0.000   
J120     0.000       0.000   
J121     0.000       0.000   
J122     0.000       0.000   
J123     0.000       0.000   
J124     0.000       0.000   
J125     0.000       0.000   
J126     0.000       0.000   
J127     0.000       0.000   
J128     0.000       0.000   
J129     0.000       0.000   
J130     0.000       0.000   
J131     0.000       0.000   
J132     0.000       0.000   
J133     0.000       0.000   
J134     0.000       0.000   
J135     0.000       0.000   
J136     0.000       0.000   
J137     0.000       0.000   
J138     0.000       0.000   
J139     0.000       0.000   
J140     0.000       0.000   
J141     0.000       0.000   
J142     0.000       0.000   
J143     0.000       0.000   
J144     0.000       0.000   
J145     0.000       0.000   
J146     0.000       0.000   
J147     0.000       0.000   
J148     0.000       0.000   
J149     0.000       0.000   
J150     0.000       0.000   
J151     0.000       0.000   
J152     0.000       0.000   
J153     0.000       0.000   
J154     0.000       0.000   
J155     0.000       0.000   
J156     0.000       0.000   
J157     0.000       0.000   
J158     0.000       0.000   
J159     0.000       0.000   
J160     0.000       0.000   
J161     0.000       0.000   
J162     0.000       0.000   
J163     0.000       0.000   
J164     0.000       0.000   
J165     0.000       0.000   
J166     0.000       0.000   
J167     0.000       0.000   
J168     0.000       0.000   
J169     0.000       0.000   
J170     0.000       0.000   
J171     0.000       0.000   
J172     0.000       0.000   
J173     0.000       0.000   
J174     0.000       0.000   
J175     0.000       0.000   
J176     0.000       0.000   
J177     0.000       0.000   
J178     0.000       0.000   
J179     0.000       0.000   
J180     0.000       0.000   
J181     0.000       0.000   
J182     0.000       0.000   
J183     0.000       0.000   
J184     0.000       0.000   
J185     0.000       0.000   
J186     0.000       0.000   
J187     0.000       0.000   
J188     0.000       0.000   
J189     0.000       0.000   
J190     0.000       0.000   
J191     0.000       0.000   
J192     0.000       0.000   
J193     0.000       0.000   
J194     0.000       0.000   
J195     0.000       0.000   
J196     0.000       0.000   
J197     0.000       0.000   
J198     0.000       0.000   
J199     0.000       0.000   
J200     0.000       0.000   
J201     0.000       0.000   
J202     0.000       0.000   
J203     0.000       0.000   
J204     0.000       0.000   
J205     0.000       0.000   
J206     0.000       0.000   
J207     0.000       0.000   
J208     0.000       0.000   
J209     0.000       0.000   
J211     0.000       0.000   
J212     0.000       0.000   
J213     0.000       0.000   
J214     0.000       0.000   
J215     0.000       0.000   
J216     0.000       0.000   
J217     0.000       0.000   
J218     0.000       0.000   
J219     0.000       0.000   
J220     0.000       0.000   
J221     0.000       0.000   
J222     0.000       0.000   
J223     0.000       0.000   
J224     0.000       0.000   
J225     0.000       0.000   
J226     0.000       0.000   
J227     0.000       0.000   
J228     0.000       0.000   
J229     0.000       0.000   
J230     0.000       0.000   
J231     0.000       0.000   
J232     0.000       0.000   
J233     0.000       0.000   
J234     0.000       0.000   
J235     0.000       0.000   
J236     0.000       0.000   
J237     0.000       0.000   
J238     0.000       0.000   
J239     0.000       0.000   
J240     0.000       0.000   
J241     0.000       0.000   
J242     0.000       0.000   
J243     0.000       0.000   
J244     0.000       0.000   
J245     0.000       0.000   
J246     0.000       0.000   
J247     0.000       0.000   
J248     0.000       0.000   
J249     0.000       0.000   
J250     0.000       0.000   
J251     0.000       0.000   
J252     0.000       0.000   
J253     0.000       0.000   
J254     0.000       0.000   
J255     0.000       0.000   
J256     0.000       0.000   
J257     0.000       0.000   
J258     0.000       0.000   
J259     0.000       0.000   
J260     0.000       0.000   
J261     0.000       0.000   
J262     0.000       0.000   
J263     0.000       0.000   
J264     0.000       0.000   
J265     0.000       0.000   
J266     0.000       0.000   
J267     0.000       0.000   
J268     0.000       0.000   
J269     0.000       0.000   
J270     0.000       0.000   
J271     0.000       0.000   
J272     0.000       0.000   
J273     0.000       0.000   
J274     0.000       0.000   
J275     0.000       0.000   
J276     0.000       0.000   
J277     0.000       0.000   
J278     0.000       0.000   
J279     0.000       0.000   
J280     0.000       0.000   
J281     0.000       0.000   
J282     0.000       0.000   
J283     0.000       0.000   
J284     0.000       0.000   
J285     0.000       0.000   
J286     0.000       0.000   
J287     0.000       0.000   
J288     0.000       0.000   
J289     0.000       0.000   
J290     0.000       0.000   
J291     0.000       0.000   
J292     0.000       0.000   
J293     0.000       0.000   
J294     0.000       0.000   
J295     0.000       0.000   
J296     0.000       0.000   
J297     0.000       0.000   
J298     0.000       0.000   
J299     0.000       0.000   
J300     0.000       0.000   
J301     0.000       0.000   
J302     0.000       0.000   
J303     0.000       0.000   
J304     0.000       0.000   
J305     0.000       0.000   
J306     0.000       0.000   
J307     0.000       0.000   
J308     0.000       0.000   
J309     0.000       0.000   
J310     0.000       0.000   
J311     0.000       0.000   
J312     0.000       0.000   
J313     0.000       0.000   
J314     0.000       0.000   
J315     0.000       0.000   
J316     0.000       0.000   
J317     0.000       0.000   
J318     0.000       0.000   
J319     0.000       0.000   
J320     0.000       0.000   
J321     0.000       0.000   
J322     0.000       0.000   
J323     0.000       0.000   
J324     0.000       0.000   
J325     0.000       0.000   
J326     0.000       0.000   
J327     0.000       0.000   
J328     0.000       0.000   
J329     0.000       0.000   
J330     0.000       0.000   
J331     0.000       0.000   
J332     0.000       0.000   
J333     0.000       0.000   
J334     0.000       0.000   
J335     0.000       0.000   
J336     0.000       0.000   
J337     0.000       0.000   
J338     0.000       0.000   
J339     0.000       0.000   
J340     0.000       0.000   
J341     0.000       0.000   
J342     0.000       0.000   
J343     0.000       0.000   
J344     0.000       0.000   
J345     0.000       0.000   
J346     0.000       0.000   
J347     0.000       0.000   
J348     0.000       0.000   
J349     0.000       0.000   
J350     0.000       0.000   
J351     0.000       0.000   
J352     0.000       0.000   
J353     0.000       0.000   
J354     0.000       0.000   
J355     0.000       0.000   
J356     0.000       0.000   
J357     0.000       0.000   
J358     0.000       0.000   
J359     0.000       0.000   
J360     0.000       0.000   
J361     0.000       0.000   
J362     0.000       0.000   
J363     0.000       0.000   
J364     0.000       0.000   
J365     0.000       0.000   
J366     0.000       0.000   
J367     0.000       0.000   
J368     0.000       0.000   
J369     0.000       0.000   
J370     0.000       0.000   
J371     0.000       0.000   
J372     0.000       0.000   
J373     0.000       0.000   
J374     0.000       0.000   
J375     0.000       0.000   
J376     0.000       0.000   
J377     0.000       0.000   
J378     0.000       0.000   
J379     0.000       0.000   
J380     0.000       0.000   
J381     0.000       0.000   
J382     0.000       0.000   
J383     0.000       0.000   
J384     0.000       0.000   
J385     0.000       0.000   
J386     0.000       0.000   
J387     0.000       0.000   
J388     0.000       0.000   
J389     0.000       0.000   
J390     0.000       0.000   
J391     0.000       0.000   
J392     0.000       0.000   
J393     0.000       0.000   
J394     0.000       0.000   
J395     0.000       0.000   
J396     0.000       0.000   
J397     0.000       0.000   
J398     0.000       0.000   
J399     0.000       0.000   
J400     0.000       0.000   

[RESERVOIRS]
;ID     Head   Pattern
R1      100.000

[PIPES]
;ID           Node1    Node2    Length   Diam    Rough    Minor   Status
P1_2          J1       J2       25.000  150.0  100.0    0.0     Open
P1_21         J1       J21      25.000  150.0  100.0    0.0     Open
P2_3          J2       J3       25.000  150.0  100.0    0.0     Open
P2_22         J2       J22      25.000  150.0  100.0    0.0     Open
P3_4          J3       J4       25.000  150.0  100.0    0.0     Open
P3_23         J3       J23      25.000  150.0  100.0    0.0     Open
P4_5          J4       J5       25.000  150.0  100.0    0.0     Open
P4_24         J4       J24      25.000  150.0  100.0    0.0     Open
P5_6          J5       J6       25.000  150.0  100.0    0.0     Open
P5_25         J5       J25      25.000  150.0  100.0    0.0     Open
P6_7          J6       J7       25.000  150.0  100.0    0.0     Open
P6_26         J6       J26      25.000  150.0  100.0    0.0     Open
P7_8          J7       J8       25.000  150.0  100.0    0.0     Open
P7_27         J7       J27      25.000  150.0  100.0    0.0     Open
P8_9          J8       J9       25.000  150.0  100.0    0.0     Open
P8_28         J8       J28      25.000  150.0  100.0    0.0     Open
P9_10         J9       J10      25.000  150.0  100.0    0.0     Open
P9_29         J9       J29      25.000  150.0  100.0    0.0     Open
P10_11        J10      J11      25.000  150.0  100.0    0.0     Open
P10_30        J10      J30      25.000  150.0  100.0    0.0     Open
P11_12        J11      J12      25.000  150.0  100.0    0.0     Open
P11_31        J11      J31      25.000  150.0  100.0    0.0     Open
P12_13        J12      J13      25.000  150.0  100.0    0.0     Open
P12_32        J12      J32      25.000  150.0  100.0    0.0     Open
P13_14        J13      J14      25.000  150.0  100.0    0.0     Open
P13_33        J13      J33      25.000  150.0  100.0    0.0     Open
P14_15        J14      J15      25.000  150.0  100.0    0.0     Open
P14_34        J14      J34      25.000  150.0  100.0    0.0     Open
P15_16        J15      J16      25.000  150.0  100.0    0.0     Open
P15_35        J15      J35      25.000  150.0  100.0    0.0     Open
P16_17        J16      J17      25.000  150.0  100.0    0.0     Open
P16_36        J16      J36      25.000  150.0  100.0    0.0     Open
P17_18        J17      J18      25.000  150.0  100.0    0.0     Open
P17_37        J17      J37      25.000  150.0  100.0    0.0     Open
P18_19        J18      J19      25.000  150.0  100.0    0.0     Open
P18_38        J18      J38      25.000  150.0  100.0    0.0     Open
P19_20        J19      J20      25.000  150.0  100.0    0.0     Open
P19_39        J19      J39      25.000  150.0  100.0    0.0     Open
P20_40        J20      J40      25.000  150.0  100.0    0.0     Open
P21_22        J21      J22      25.000  150.0  100.0    0.0     Open
P21_41        J21      J41      25.000  150.0  100.0    0.0     Open
P22_23        J22      J23      25.000  150.0  100.0    0.0     Open
P22_42        J22      J42      25.000  150.0  100.0    0.0     Open
P23_24        J23      J24      25.000  150.0  100.0    0.0     Open
P23_43        J23      J43      25.000  150.0  100.0    0.0     Open
P24_25        J24      J25      25.000  150.0  100.0    0.0     Open
P24_44        J24      J44      25.000  150.0  100.0    0.0     Open
P25_26        J25      J26      25.000  150.0  100.0    0.0     Open
P25_45        J25      J45      25.000  150.0  100.0    0.0     Open
P26_27        J26      J27      25.000  150.0  100.0    0.0     Open
P26_46        J26      J46      25.000  150.0  100.0    0.0     Open
P27_28        J27      J28      25.000  150.0  100.0    0.0     Open
P27_47        J27      J47      25.000  150.0  100.0    0.0     Open
P28_29        J28      J29      25.000  150.0  100.0    0.0     Open
P28_48        J28      J48      25.000  150.0  100.0    0.0     Open
P29_30        J29      J30      25.000  150.0  100.0    0.0     Open
P29_49        J29      J49      25.000  150.0  100.0    0.0     Open
P30_31        J30      J31      25.000  150.0  100.0    0.0     Open
P30_50        J30      J50      25.000  150.0  100.0    0.0     Open
P31_32        J31      J32      25.000  150.0  100.0    0.0     Open
P31_51        J31      J51      25.000  150.0  100.0    0.0     Open
P32_33        J32      J33      25.000  150.0  100.0    0.0     Open
P32_52        J32      J52      25.000  150.0  100.0    0.0     Open
P33_34        J33      J34      25.000  150.0  100.0    0.0     Open
P33_53        J33      J53      25.000  150.0  100.0    0.0     Open
P34_35        J34      J35      25.000  150.0  100.0    0.0     Open
P34_54        J34      J54      25.000  150.0  100.0    0.0     Open
P35_36        J35      J36      25.000  150.0  100.0    0.0     Open
P35_55        J35      J55      25.000  150.0  100.0    0.0     Open
P36_37        J36      J37      25.000  150.0  100.0    0.0     Open
P36_56        J36      J56      25.000  150.0  100.0    0.0     Open
P37_38        J37      J38      25.000  150.0  100.0    0.0     Open
P37_57        J37      J57      25.000  150.0  100.0    0.0     Open
P38_39        J38      J39      25.000  150.0  100.0    0.0     Open
P38_58        J38      J58      25.000  150.0  100.0    0.0     Open
P39_40        J39      J40      25.000  150.0  100.0    0.0     Open
P39_59        J39      J59      25.000  150.0  100.0    0.0     Open
P40_60        J40      J60      25.000  150.0  100.0    0.0     Open
P41_42        J41      J42      25.000  150.0  100.0    0.0     Open
P41_61        J41      J61      25.000  150.0  100.0    0.0     Open
P42_43        J42      J43      25.000  150.0  100.0    0.0     Open
P42_62        J42      J62      25.000  150.0  100.0    0.0     Open
P43_44        J43      J44      25.000  150.0  100.0    0.0     Open
P43_63        J43      J63      25.000  150.0  100.0    0.0     Open
P44_45        J44      J45      25.000  150.0  100.0    0.0     Open
P44_64        J44      J64      25.000  150.0  100.0    0.0     Open
P45_46        J45      J46      25.000  150.0  100.0    0.0     Open
P45_65        J45      J65      25.000  150.0  100.0    0.0     Open
P46_47        J46      J47      25.000  150.0  100.0    0.0     Open
P46_66        J46      J66      25.000  150.0  100.0    0.0     Open
P47_48        J47      J48      25.000  150.0  100.0    0.0     Open
P47_67        J47      J67      25.000  150.0  100.0    0.0     Open
P48_49        J48      J49      25.000  150.0  100.0    0.0     Open
P48_68        J48      J68      25.000  150.0  100.0    0.0     Open
P49_50        J49      J50      25.000  150.0  100.0    0.0     Open
P49_69        J49      J69      25.000  150.0  100.0    0.0     Open
P50_51        J50      J51      25.000  150.0  100.0    0.0     Open
P50_70        J50      J70      25.000  150.0  100.0    0.0     Open
P51_52        J51      J52      25.000  150.0  100.0    0.0     Open
P51_71        J51      J71      25.000  150.0  100.0    0.0     Open
P52_53        J52      J53      25.000  150.0  100.0    0.0     Open
P52_72        J52      J72      25.000  150.0  100.0    0.0     Open
P53_54        J53      J54      25.000  150.0  100.0    0.0     Open
P53_73        J53      J73      25.000  150.0  100.0    0.0     Open
P54_55        J54      J55      25.000  150.0  100.0    0.0     Open
P54_74        J54      J74      25.000  150.0  100.0    0.0     Open
P55_56        J55      J56      25.000  150.0  100.0    0.0     Open
P55_75        J55      J75      25.000  150.0  100.0    0.0     Open
P56_57        J56      J57      25.000  150.0  100.0    0.0     Open
P56_76        J56      J76      25.000  150.0  100.0    0.0     Open
P57_58        J57      J58      25.000  150.0  100.0    0.0     Open
P57_77        J57      J77      25.000  150.0  100.0    0.0     Open
P58_59        J58      J59      25.000  150.0  100.0    0.0     Open
P58_78        J58      J78      25.000  150.0  100.0    0.0     Open
P59_60        J59      J60      25.000  150.0  100.0    0.0     Open
P59_79        J59      J79      25.000  150.0  100.0    0.0     Open
P60_80        J60      J80      25.000  150.0  100.0    0.0     Open
P61_62        J61      J62      25.000  150.0  100.0    0.0     Open
P61_81        J61      J81      25.000  150.0  100.0    0.0     Open
P62_63        J62      J63      25.000  150.0  100.0    0.0     Open
P62_82        J62      J82      25.000  150.0  100.0    0.0     Open
P63_64        J63      J64      25.000  150.0  100.0    0.0     Open
P63_83        J63      J83      25.000  150.0  100.0    0.0     Open
P64_65        J64      J65      25.000  150.0  100.0    0.0     Open
P64_84        J64      J84      25.000  150.0  100.0    0.0     Open
P65_66        J65      J66      25.000  150.0  100.0    0.0     Open
P65_85        J65      J85      25.000  150.0  100.0    0.0     Open
P66_67        J66      J67      25.000  150.0  100.0    0.0     Open
P66_86        J66      J86      25.000  150.0  100.0    0.0     Open
P67_68        J67      J68      25.000  150.0  100.0    0.0     Open
P67_87        J67      J87      25.000  150.0  100.0    0.0     Open
P68_69        J68      J69      25.000  150.0  100.0    0.0     Open
P68_88        J68      J88      25.000  150.0  100.0    0.0     Open
P69_70        J69      J70      25.000  150.0  100.0    0.0     Open
P69_89        J69      J89      25.000  150.0  100.0    0.0     Open
P70_71        J70      J71      25.000  150.0  100.0    0.0     Open
P70_90        J70      J90      25.000  150.0  100.0    0.0     Open
P71_72        J71      J72      25.000  150.0  100.0    0.0     Open
P71_91        J71      J91      25.000  150.0  100.0    0.0     Open
P72_73        J72      J73      25.000  150.0  100.0    0.0     Open
P72_92        J72      J92      25.000  150.0  100.0    0.0     Open
P73_74        J73      J74      25.000  150.0  100.0    0.0     Open
P73_93        J73      J93      25.000  150.0  100.0    0.0     Open
P74_75        J74      J75      25.000  150.0  100.0    0.0     Open
P74_94        J74      J94      25.000  150.0  100.0    0.0     Open
P75_76        J75      J76      25.000  150.0  100.0    0.0     Open
P75_95        J75      J95      25.000  150.0  100.0    0.0     Open
P76_77        J76      J77      25.000  150.0  100.0    0.0     Open
P76_96        J76      J96      25.000  150.0  100.0    0.0     Open
P77_78        J77      J78      25.000  150.0  100.0    0.0     Open
P77_97        J77      J97      25.000  150.0  100.0    0.0     Open
P78_79        J78      J79      25.000  150.0  100.0    0.0     Open
P78_98        J78      J98      25.000  150.0  100.0    0.0     Open
P79_80        J79      J80      25.000  150.0  100.0    0.0     Open
P79_99        J79      J99      25.000  150.0  100.0    0.0     Open
P80_100       J80      J100     25.000  150.0  100.0    0.0     Open
P81_82        J81      J82      25.000  150.0  100.0    0.0     Open
P81_101       J81      J101     25.000  150.0  100.0    0.0     Open
P82_83        J82      J83      25.000  150.0  100.0    0.0     Open
P82_102       J82      J102     25.000  150.0  100.0    0.0     Open
P83_84        J83      J84      25.000  150.0  100.0    0.0     Open
P83_103       J83      J103     25.000  150.0  100.0    0.0     Open
P84_85        J84      J85      25.000  150.0  100.0    0.0     Open
P84_104       J84      J104     25.000  150.0  100.0    0.0     Open
P85_86        J85      J86      25.000  150.0  100.0    0.0     Open
P85_105       J85      J105     25.000  150.0  100.0    0.0     Open
P86_87        J86      J87      25.000  150.0  100.0    0.0     Open
P86_106       J86      J106     25.000  150.0  100.0    0.0     Open
P87_88        J87      J88      25.000  150.0  100.0    0.0     Open
P87_107       J87      J107     25.000  150.0  100.0    0.0     Open
P88_89        J88      J89      25.000  150.0  100.0    0.0     Open
P88_108       J88      J108     25.000  150.0  100.0    0.0     Open
P89_90        J89      J90      25.000  150.0  100.0    0.0     Open
P89_109       J89      J109     25.000  150.0  100.0    0.0     Open
P90_91        J90      J91      25.000  150.0  100.0    0.0     Open
P90_110       J90      J110     25.000  150.0  100.0    0.0     Open
P91_92        J91      J92      25.000  150.0  100.0    0.0     Open
P91_111       J91      J111     25.000  150.0  100.0    0.0     Open
P92_93        J92      J93      25.000  150.0  100.0    0.0     Open
P92_112       J92      J112     25.000  150.0  100.0    0.0     Open
P93_94        J93      J94      25.000  150.0  100.0    0.0     Open
P93_113       J93      J113     25.000  150.0  100.0    0.0     Open
P94_95        J94      J95      25.000  150.0  100.0    0.0     Open
P94_114       J94      J114     25.000  150.0  100.0    0.0     Open
P95_96        J95      J96      25.000  150.0  100.0    0.0     Open
P95_115       J95      J115     25.000  150.0  100.0    0.0     Open
P96_97        J96      J97      25.000  150.0  100.0    0.0     Open
P96_116       J96      J116     25.000  150.0  100.0    0.0     Open
P97_98        J97      J98      25.000  150.0  100.0    0.0     Open
P97_117       J97      J117     25.000  150.0  100.0    0.0     Open
P98_99        J98      J99      25.000  150.0  100.0    0.0     Open
P98_118       J98      J118     25.000  150.0  100.0    0.0     Open
P99_100       J99      J100     25.000  150.0  100.0    0.0     Open
P99_119       J99      J119     25.000  150.0  100.0    0.0     Open
P100_120      J100     J120     25.000  150.0  100.0    0.0     Open
P101_102      J101     J102     25.000  150.0  100.0    0.0     Open
P101_121      J101     J121     25.000  150.0  100.0    0.0     Open
P102_103      J102     J103     25.000  150.0  100.0    0.0     Open
P102_122      J102     J122     25.000  150.0  100.0    0.0     Open
P103_104      J103     J104     25.000  150.0  100.0    0.0     Open
P103_123      J103     J123     25.000  150.0  100.0    0.0     Open
P104_105      J104     J105     25.000  150.0  100.0    0.0     Open
P104_124      J104     J124     25.000  150.0  100.0    0.0     Open
P105_106      J105     J106     25.000  150.0  100.0    0.0     Open
P105_125      J105     J125     25.000  150.0  100.0    0.0     Open
P106_107      J106     J107     25.000  150.0  100.0    0.0     Open
P106_126      J106     J126     25.000  150.0  100.0    0.0     Open
P107_108      J107     J108     25.000  150.0  100.0    0.0     Open
P107_127      J107     J127     25.000  150.0  100.0    0.0     Open
P108_109      J108     J109     25.000  150.0  100.0    0.0     Open
P108_128      J108     J128     25.000  150.0  100.0    0.0     Open
P109_110      J109     J110     25.000  150.0  100.0    0.0     Open
P109_129      J109     J129     25.000  150.0  100.0    0.0     Open
P110_111      J110     J111     25.000  150.0  100.0    0.0     Open
P110_130      J110     J130     25.000  150.0  100.0    0.0     Open
P111_112      J111     J112     25.000  150.0  100.0    0.0     Open
P111_131      J111     J131     25.000  150.0  100.0    0.0     Open
P112_113      J112     J113     25.000  150.0  100.0    0.0     Open
P112_132      J112     J132     25.000  150.0  100.0    0.0     Open
P113_114      J113     J114     25.000  150.0  100.0    0.0     Open
P113_133      J113     J133     25.000  150.0  100.0    0.0     Open
P114_115      J114     J115     25.000  150.0  100.0    0.0     Open
P114_134      J114     J134     25.000  150.0  100.0    0.0     Open
P115_116      J115     J116     25.000  150.0  100.0    0.0     Open
P115_135      J115     J135     25.000  150.0  100.0    0.0     Open
P116_117      J116     J117     25.000  150.0  100.0    0.0     Open
P116_136      J116     J136     25.000  150.0  100.0    0.0     Open
P117_118      J117     J118     25.000  150.0  100.0    0.0     Open
P117_137      J117     J137     25.000  150.0  100.0    0.0     Open
P118_119      J118     J119     25.000  150.0  100.0    0.0     Open
P118_138      J118     J138     25.000  150.0  100.0    0.0     Open
P119_120      J119     J120     25.000  150.0  100.0    0.0     Open
P119_139      J119     J139     25.000  150.0  100.0    0.0     Open
P120_140      J120     J140     25.000  150.0  100.0    0.0     Open
P121_122      J121     J122     25.000  150.0  100.0    0.0     Open
P121_141      J121     J141     25.000  150.0  100.0    0.0     Open
P122_123      J122     J123     25.000  150.0  100.0    0.0     Open
P122_142      J122     J142     25.000  150.0  100.0    0.0     Open
P123_124      J123     J124     25.000  150.0  100.0    0.0     Open
P123_143      J123     J143     25.000  150.0  100.0    0.0     Open
P124_125      J124     J125     25.000  150.0  100.0    0.0     Open
P124_144      J124     J144     25.000  150.0  100.0    0.0     Open
P125_126      J125     J126     25.000  150.0  100.0    0.0     Open
P125_145      J125     J145     25.000  150.0  100.0    0.0     Open
P126_127      J126     J127     25.000  150.0  100.0    0.0     Open
P126_146      J126     J146     25.000  150.0  100.0    0.0     Open
P127_128      J127     J128     25.000  150.0  100.0    0.0     Open
P127_147      J127     J147     25.000  150.0  100.0    0.0     Open
P128_129      J128     J129     25.000  150.0  100.0    0.0     Open
P128_148      J128     J148     25.000  150.0  100.0    0.0     Open