[TITLE]
30x30 Grid Network with Central Reservoir R1 (replacing J465)

[OPTIONS]
 Units              	GPM
 Headloss           	H-W
 Specific Gravity   	1.000000
 Viscosity          	1
 Trials             	40
 Accuracy           	0.01
 CHECKFREQ          	2
 MAXCHECK           	10
 DAMPLIMIT          	0
 Unbalanced         	Continue 10
 Pattern            	1
 Demand Multiplier  	1.000000
 Emitter Exponent   	0.500000
 Quality            	None mg/L
 Diffusivity        	1
 Tolerance          	0.010000

[REPORT]
Status	Yes
Summary	Yes

[JUNCTIONS]
;ID	Elevation	Demand	Pattern
J1	0	0
J2	0	0
J3	0	0
J4	0	0
J5	0	0
J6	0	0
J7	0	0
J8	0	0
J9	0	0
J10	0	0
J11	0	0
J12	0	0
J13	0	0
J14	0	0
J15	0	0
J16	0	0
J17	0	0
J18	0	0
J19	0	0
J20	0	0
J21	0	0
J22	0	0
J23	0	0
J24	0	0
J25	0	0
J26	0	0
J27	0	0
J28	0	0
J29	0	0
J30	0	0
J31	0	0
J32	0	0
J33	0	0
J34	0	0
J35	0	0
J36	0	0
J37	0	0
J38	0	0
J39	0	0
J40	0	0
J41	0	0
J42	0	0
J43	0	0
J44	0	0
J45	0	0
J46	0	0
J47	0	0
J48	0	0
J49	0	0
J50	0	0
J51	0	0
J52	0	0
J53	0	0
J54	0	0
J55	0	0
J56	0	0
J57	0	0
J58	0	0
J59	0	0
J60	0	0
J61	0	0
J62	0	0
J63	0	0
J64	0	0
J65	0	0
J66	0	0
J67	0	0
J68	0	0
J69	0	0
J70	0	0
J71	0	0
J72	0	0
J73	0	0
J74	0	0
J75	0	0
J76	0	0
J77	0	0
J78	0	0
J79	0	0
J80	0	0
J81	0	0
J82	0	0
J83	0	0
J84	0	0
J85	0	0
J86	0	0
J87	0	0
J88	0	0
J89	0	0
J90	0	0
J91	0	0
J92	0	0
J93	0	0
J94	0	0
J95	0	0
J96	0	0
J97	0	0
J98	0	0
J99	0	0
J100	0	0
J101	0	0
J102	0	0
J103	0	0
J104	0	0
J105	0	0
J106	0	0
J107	0	0
J108	0	0
J109	0	0
J110	0	0
J111	0	0
J112	0	0
J113	0	0
J114	0	0
J115	0	0
J116	0	0
J117	0	0
J118	0	0
J119	0	0
J120	0	0
J121	0	0
J122	0	0
J123	0	0
J124	0	0
J125	0	0
J126	0	0
J127	0	0
J128	0	0
J129	0	0
J130	0	0
J131	0	0
J132	0	0
J133	0	0
J134	0	0
J135	0	0
J136	0	0
J137	0	0
J138	0	0
J139	0	0
J140	0	0
J141	0	0
J142	0	0
J143	0	0
J144	0	0
J145	0	0
J146	0	0
J147	0	0
J148	0	0
J149	0	0
J150	0	0
J151	0	0
J152	0	0
J153	0	0
J154	0	0
J155	0	0
J156	0	0
J157	0	0
J158	0	0
J159	0	0
J160	0	0
J161	0	0
J162	0	0
J163	0	0
J164	0	0
J165	0	0
J166	0	0
J167	0	0
J168	0	0
J169	0	0
J170	0	0
J171	0	0
J172	0	0
J173	0	0
J174	0	0
J175	0	0
J176	0	0
J177	0	0
J178	0	0
J179	0	0
J180	0	0
J181	0	0
J182	0	0
J183	0	0
J184	0	0
J185	0	0
J186	0	0
J187	0	0
J188	0	0
J189	0	0
J190	0	0
J191	0	0
J192	0	0
J193	0	0
J194	0	0
J195	0	0
J196	0	0
J197	0	0
J198	0	0
J199	0	0
J200	0	0
J201	0	0
J202	0	0
J203	0	0
J204	0	0
J205	0	0
J206	0	0
J207	0	0
J208	0	0
J209	0	0
J210	0	0
J211	0	0
J212	0	0
J213	0	0
J214	0	0
J215	0	0
J216	0	0
J217	0	0
J218	0	0
J219	0	0
J220	0	0
J221	0	0
J222	0	0
J223	0	0
J224	0	0
J225	0	0
J226	0	0
J227	0	0
J228	0	0
J229	0	0
J230	0	0
J231	0	0
J232	0	0
J233	0	0
J234	0	0
J235	0	0
J236	0	0
J237	0	0
J238	0	0
J239	0	0
J240	0	0
J241	0	0
J242	0	0
J243	0	0
J244	0	0
J245	0	0
J246	0	0
J247	0	0
J248	0	0
J249	0	0
J250	0	0
J251	0	0
J252	0	0
J253	0	0
J254	0	0
J255	0	0
J256	0	0
J257	0	0
J258	0	0
J259	0	0
J260	0	0
J261	0	0
J262	0	0
J263	0	0
J264	0	0
J265	0	0
J266	0	0
J267	0	0
J268	0	0
J269	0	0
J270	0	0
J271	0	0
J272	0	0
J273	0	0
J274	0	0
J275	0	0
J276	0	0
J277	0	0
J278	0	0
J279	0	0
J280	0	0
J281	0	0
J282	0	0
J283	0	0
J284	0	0
J285	0	0
J286	0	0
J287	0	0
J288	0	0
J289	0	0
J290	0	0
J291	0	0
J292	0	0
J293	0	0
J294	0	0
J295	0	0
J296	0	0
J297	0	0
J298	0	0
J299	0	0
J300	0	0
J301	0	0
J302	0	0
J303	0	0
J304	0	0
J305	0	0
J306	0	0
J307	0	0
J308	0	0
J309	0	0
J310	0	0
J311	0	0
J312	0	0
J313	0	0
J314	0	0
J315	0	0
J316	0	0
J317	0	0
J318	0	0
J319	0	0
J320	0	0
J321	0	0
J322	0	0
J323	0	0
J324	0	0
J325	0	0
J326	0	0
J327	0	0
J328	0	0
J329	0	0
J330	0	0
J331	0	0
J332	0	0
J333	0	0
J334	0	0
J335	0	0
J336	0	0
J337	0	0
J338	0	0
J339	0	0
J340	0	0
J341	0	0
J342	0	0
J343	0	0
J344	0	0
J345	0	0
J346	0	0
J347	0	0
J348	0	0
J349	0	0
J350	0	0
J351	0	0
J352	0	0
J353	0	0
J354	0	0
J355	0	0
J356	0	0
J357	0	0
J358	0	0
J359	0	0
J360	0	0
J361	0	0
J362	0	0
J363	0	0
J364	0	0
J365	0	0
J366	0	0
J367	0	0
J368	0	0
J369	0	0
J370	0	0
J371	0	0
J372	0	0
J373	0	0
J374	0	0
J375	0	0
J376	0	0
J377	0	0
J378	0	0
J379	0	0
J380	0	0
J381	0	0
J382	0	0
J383	0	0
J384	0	0
J385	0	0
J386	0	0
J387	0	0
J388	0	0
J389	0	0
J390	0	0
J391	0	0
J392	0	0
J393	0	0
J394	0	0
J395	0	0
J396	0	0
J397	0	0
J398	0	0
J399	0	0
J400	0	0
J401	0	0
J402	0	0
J403	0	0
J404	0	0
J405	0	0
J406	0	0
J407	0	0
J408	0	0
J409	0	0
J410	0	0
J411	0	0
J412	0	0
J413	0	0
J414	0	0
J415	0	0
J416	0	0
J417	0	0
J418	0	0
J419	0	0
J420	0	0
J421	0	0
J422	0	0
J423	0	0
J424	0	0
J425	0	0
J426	0	0
J427	0	0
J428	0	0
J429	0	0
J430	0	0
J431	0	0
J432	0	0
J433	0	0
J434	0	0
J435	0	0
J436	0	0
J437	0	0
J438	0	0
J439	0	0
J440	0	0
J441	0	0
J442	0	0
J443	0	0
J444	0	0
J445	0	0
J446	0	0
J447	0	0
J448	0	0
J449	0	0
J450	0	0
J451	0	0
J452	0	0
J453	0	0
J454	0	0
J455	0	0
J456	0	0
J457	0	0
J458	0	0
J459	0	0
J460	0	0
J461	0	0
J462	0	0
J463	0	0
J464	0	0
J466	0	0
J467	0	0
J468	0	0
J469	0	0
J470	0	0
J471	0	0
J472	0	0
J473	0	0
J474	0	0
J475	0	0
J476	0	0
J477	0	0
J478	0	0
J479	0	0
J480	0	0
J481	0	0
J482	0	0
J483	0	0
J484	0	0
J485	0	0
J486	0	0
J487	0	0
J488	0	0
J489	0	0
J490	0	0
J491	0	0
J492	0	0
J493	0	0
J494	0	0
J495	0	0
J496	0	0
J497	0	0
J498	0	0
J499	0	0
J500	0	0
J501	0	0
J502	0	0
J503	0	0
J504	0	0
J505	0	0
J506	0	0
J507	0	0
J508	0	0
J509	0	0
J510	0	0
J511	0	0
J512	0	0
J513	0	0
J514	0	0
J515	0	0
J516	0	0
J517	0	0
J518	0	0
J519	0	0
J520	0	0
J521	0	0
J522	0	0
J523	0	0
J524	0	0
J525	0	0
J526	0	0
J527	0	0
J528	0	0
J529	0	0
J530	0	0
J531	0	0
J532	0	0
J533	0	0
J534	0	0
J535	0	0
J536	0	0
J537	0	0
J538	0	0
J539	0	0
J540	0	0
J541	0	0
J542	0	0
J543	0	0
J544	0	0
J545	0	0
J546	0	0
J547	0	0
J548	0	0
J549	0	0
J550	0	0
J551	0	0
J552	0	0
J553	0	0
J554	0	0
J555	0	0
J556	0	0
J557	0	0
J558	0	0
J559	0	0
J560	0	0
J561	0	0
J562	0	0
J563	0	0
J564	0	0
J565	0	0
J566	0	0
J567	0	0
J568	0	0
J569	0	0
J570	0	0
J571	0	0
J572	0	0
J573	0	0
J574	0	0
J575	0	0
J576	0	0
J577	0	0
J578	0	0
J579	0	0
J580	0	0
J581	0	0
J582	0	0
J583	0	0
J584	0	0
J585	0	0
J586	0	0
J587	0	0
J588	0	0
J589	0	0
J590	0	0
J591	0	0
J592	0	0
J593	0	0
J594	0	0
J595	0	0
J596	0	0
J597	0	0
J598	0	0
J599	0	0
J600	0	0
J601	0	0
J602	0	0
J603	0	0
J604	0	0
J605	0	0
J606	0	0
J607	0	0
J608	0	0
J609	0	0
J610	0	0
J611	0	0
J612	0	0
J613	0	0
J614	0	0
J615	0	0
J616	0	0
J617	0	0
J618	0	0
J619	0	0
J620	0	0
J621	0	0
J622	0	0
J623	0	0
J624	0	0
J625	0	0
J626	0	0
J627	0	0
J628	0	0
J629	0	0
J630	0	0
J631	0	0
J632	0	0
J633	0	0
J634	0	0
J635	0	0
J636	0	0
J637	0	0
J638	0	0
J639	0	0
J640	0	0
J641	0	0
J642	0	0
J643	0	0
J644	0	0
J645	0	0
J646	0	0
J647	0	0
J648	0	0
J649	0	0
J650	0	0
J651	0	0
J652	0	0
J653	0	0
J654	0	0
J655	0	0
J656	0	0
J657	0	0
J658	0	0
J659	0	0
J660	0	0
J661	0	0
J662	0	0
J663	0	0
J664	0	0
J665	0	0
J666	0	0
J667	0	0
J668	0	0
J669	0	0
J670	0	0
J671	0	0
J672	0	0
J673	0	0
J674	0	0
J675	0	0
J676	0	0
J677	0	0
J678	0	0
J679	0	0
J680	0	0
J681	0	0
J682	0	0
J683	0	0
J684	0	0
J685	0	0
J686	0	0
J687	0	0
J688	0	0
J689	0	0
J690	0	0
J691	0	0
J692	0	0
J693	0	0
J694	0	0
J695	0	0
J696	0	0
J697	0	0
J698	0	0
J699	0	0
J700	0	0
J701	0	0
J702	0	0
J703	0	0
J704	0	0
J705	0	0
J706	0	0
J707	0	0
J708	0	0
J709	0	0
J710	0	0
J711	0	0
J712	0	0
J713	0	0
J714	0	0
J715	0	0
J716	0	0
J717	0	0
J718	0	0
J719	0	0
J720	0	0
J721	0	0
J722	0	0
J723	0	0
J724	0	0
J725	0	0
J726	0	0
J727	0	0
J728	0	0
J729	0	0
J730	0	0
J731	0	0
J732	0	0
J733	0	0
J734	0	0
J735	0	0
J736	0	0
J737	0	0
J738	0	0
J739	0	0
J740	0	0
J741	0	0
J742	0	0
J743	0	0
J744	0	0
J745	0	0
J746	0	0
J747	0	0
J748	0	0
J749	0	0
J750	0	0
J751	0	0
J752	0	0
J753	0	0
J754	0	0
J755	0	0
J756	0	0
J757	0	0
J758	0	0
J759	0	0
J760	0	0
J761	0	0
J762	0	0
J763	0	0
J764	0	0
J765	0	0
J766	0	0
J767	0	0
J768	0	0
J769	0	0
J770	0	0
J771	0	0
J772	0	0
J773	0	0
J774	0	0
J775	0	0
J776	0	0
J777	0	0
J778	0	0
J779	0	0
J780	0	0
J781	0	0
J782	0	0
J783	0	0
J784	0	0
J785	0	0
J786	0	0
J787	0	0
J788	0	0
J789	0	0
J790	0	0
J791	0	0
J792	0	0
J793	0	0
J794	0	0
J795	0	0
J796	0	0
J797	0	0
J798	0	0
J799	0	0
J800	0	0
J801	0	0
J802	0	0
J803	0	0
J804	0	0
J805	0	0
J806	0	0
J807	0	0
J808	0	0
J809	0	0
J810	0	0
J811	0	0
J812	0	0
J813	0	0
J814	0	0
J815	0	0
J816	0	0
J817	0	0
J818	0	0
J819	0	0
J820	0	0
J821	0	0
J822	0	0
J823	0	0
J824	0	0
J825	0	0
J826	0	0
J827	0	0
J828	0	0
J829	0	0
J830	0	0
J831	0	0
J832	0	0
J833	0	0
J834	0	0
J835	0	0
J836	0	0
J837	0	0
J838	0	0
J839	0	0
J840	0	0
J841	0	0
J842	0	0
J843	0	0
J844	0	0
J845	0	0
J846	0	0
J847	0	0
J848	0	0
J849	0	0
J850	0	0
J851	0	0
J852	0	0
J853	0	0
J854	0	0
J855	0	0
J856	0	0
J857	0	0
J858	0	0
J859	0	0
J860	0	0
J861	0	0
J862	0	0
J863	0	0
J864	0	0
J865	0	0
J866	0	0
J867	0	0
J868	0	0
J869	0	0
J870	0	0
J871	0	0
J872	0	0
J873	0	0
J874	0	0
J875	0	0
J876	0	0
J877	0	0
J878	0	0
J879	0	0
J880	0	0
J881	0	0
J882	0	0
J883	0	0
J884	0	0
J885	0	0
J886	0	0
J887	0	0
J888	0	0
J889	0	0
J890	0	0
J891	0	0
J892	0	0
J893	0	0
J894	0	0
J895	0	0
J896	0	0
J897	0	0
J898	0	0
J899	0	0
J900	0	0

[RESERVOIRS]
;ID	Head	Pattern
R1	100

[TANKS]

[PUMPS]

[VALVES]

[DEMANDS]

[PATTERNS]

[ENERGY]

[CURVES]

[CONTROLS]

[PIPES]
;ID	Node1	Node2	Length	Diameter	Roughness	MinorLoss	Status
P1_2	J1	J2	25	11	100	0	Open
P2_3	J2	J3	25	11	100	0	Open
P3_4	J3	J4	25	11	100	0	Open
P4_5	J4	J5	25	11	100	0	Open
P5_6	J5	J6	25	11	100	0	Open
P6_7	J6	J7	25	11	100	0	Open
P7_8	J7	J8	25	11	100	0	Open
P8_9	J8	J9	25	11	100	0	Open
P9_10	J9	J10	25	11	100	0	Open
P10_11	J10	J11	25	11	100	0	Open
P11_12	J11	J12	25	11	100	0	Open
P12_13	J12	J13	25	11	100	0	Open
P13_14	J13	J14	25	11	100	0	Open
P14_15	J14	J15	25	11	100	0	Open
P15_16	J15	J16	25	11	100	0	Open
P16_17	J16	J17	25	11	100	0	Open
P17_18	J17	J18	25	11	100	0	Open
P18_19	J18	J19	25	11	100	0	Open
P19_20	J19	J20	25	11	100	0	Open
P20_21	J20	J21	25	11	100	0	Open
P21_22	J21	J22	25	11	100	0	Open
P22_23	J22	J23	25	11	100	0	Open
P23_24	J23	J24	25	11	100	0	Open
P24_25	J24	J25	25	11	100	0	Open
P25_26	J25	J26	25	11	100	0	Open
P26_27	J26	J27	25	11	100	0	Open
P27_28	J27	J28	25	11	100	0	Open
P28_29	J28	J29	25	11	100	0	Open
P29_30	J29	J30	25	11	100	0	Open
P31_32	J31	J32	25	11	100	0	Open
P32_33	J32	J33	25	11	100	0	Open
P33_34	J33	J34	25	11	100	0	Open
P34_35	J34	J35	25	11	100	0	Open
P35_36	J35	J36	25	11	100	0	Open
P36_37	J36	J37	25	11	100	0	Open
P37_38	J37	J38	25	11	100	0	Open
P38_39	J38	J39	25	11	100	0	Open
P39_40	J39	J40	25	11	100	0	Open
P40_41	J40	J41	25	11	100	0	Open
P41_42	J41	J42	25	11	100	0	Open
P42_43	J42	J43	25	11	100	0	Open
P43_44	J43	J44	25	11	100	0	Open
P44_45	J44	J45	25	11	100	0	Open
P45_46	J45	J46	25	11	100	0	Open
P46_47	J46	J47	25	11	100	0	Open
P47_48	J47	J48	25	11	100	0	Open
P48_49	J48	J49	25	11	100	0	Open
P49_50	J49	J50	25	11	100	0	Open
P50_51	J50	J51	25	11	100	0	Open
P51_52	J51	J52	25	11	100	0	Open
P52_53	J52	J53	25	11	100	0	Open
P53_54	J53	J54	25	11	100	0	Open
P54_55	J54	J55	25	11	100	0	Open
P55_56	J55	J56	25	11	100	0	Open
P56_57	J56	J57	25	11	100	0	Open
P57_58	J57	J58	25	11	100	0	Open
P58_59	J58	J59	25	11	100	0	Open
P59_60	J59	J60	25	11	100	0	Open
P61_62	J61	J62	25	11	100	0	Open
P62_63	J62	J63	25	11	100	0	Open
P63_64	J63	J64	25	11	100	0	Open
P64_65	J64	J65	25	11	100	0	Open
P65_66	J65	J66	25	11	100	0	Open
P66_67	J66	J67	25	11	100	0	Open
P67_68	J67	J68	25	11	100	0	Open
P68_69	J68	J69	25	11	100	0	Open
P69_70	J69	J70	25	11	100	0	Open
P70_71	J70	J71	25	11	100	0	Open
P71_72	J71	J72	25	11	100	0	Open
P72_73	J72	J73	25	11	100	0	Open
P73_74	J73	J74	25	11	100	0	Open
P74_75	J74	J75	25	11	100	0	Open
P75_76	J75	J76	25	11	100	0	Open
P76_77	J76	J77	25	11	100	0	Open
P77_78	J77	J78	25	11	100	0	Open
P78_79	J78	J79	25	11	100	0	Open
P79_80	J79	J80	25	11	100	0	Open
P80_81	J80	J81	25	11	100	0	Open
P81_82	J81	J82	25	11	100	0	Open
P82_83	J82	J83	25	11	100	0	Open
P83_84	J83	J84	25	11	100	0	Open
P84_85	J84	J85	25	11	100	0	Open
P85_86	J85	J86	25	11	100	0	Open
P86_87	J86	J87	25	11	100	0	Open
P87_88	J87	J88	25	11	100	0	Open
P88_89	J88	J89	25	11	100	0	Open
P89_90	J89	J90	25	11	100	0	Open
P91_92	J91	J92	25	11	100	0	Open
P92_93	J92	J93	25	11	100	0	Open
P93_94	J93	J94	25	11	100	0	Open
P94_95	J94	J95	25	11	100	0	Open
P95_96	J95	J96	25	11	100	0	Open
P96_97	J96	J97	25	11	100	0	Open
P97_98	J97	J98	25	11	100	0	Open
P98_99	J98	J99	25	11	100	0	Open
P99_100	J99	J100	25	11	100	0	Open
P100_101	J100	J101	25	11	100	0	Open
P101_102	J101	J102	25	11	100	0	Open
P102_103	J102	J103	25	11	100	0	Open
P103_104	J103	J104	25	11	100	0	Open
P104_105	J104	J105	25	11	100	0	Open
P105_106	J105	J106	25	11	100	0	Open
P106_107	J106	J107	25	11	100	0	Open
P107_108	J107	J108	25	11	100	0	Open
P108_109	J108	J109	25	11	100	0	Open
P109_110	J109	J110	25	11	100	0	Open
P110_111	J110	J111	25	11	100	0	Open
P111_112	J111	J112	25	11	100	0	Open
P112_113	J112	J113	25	11	100	0	Open
P113_114	J113	J114	25	11	100	0	Open
P114_115	J114	J115	25	11	100	0	Open
P115_116	J115	J116	25	11	100	0	Open
P116_117	J116	J117	25	11	100	0	Open
P117_118	J117	J118	25	11	100	0	Open
P118_119	J118	J119	25	11	100	0	Open
P119_120	J119	J120	25	11	100	0	Open
P121_122	J121	J122	25	11	100	0	Open
P122_123	J122	J123	25	11	100	0	Open
P123_124	J123	J124	25	11	100	0	Open
P124_125	J124	J125	25	11	100	0	Open
P125_126	J125	J126	25	11	100	0	Open
P126_127	J126	J127	25	11	100	0	Open
P127_128	J127	J128	25	11	100	0	Open
P128_129	J128	J129	25	11	100	0	Open
P129_130	J129	J130	25	11	100	0	Open
P130_131	J130	J131	25	11	100	0	Open
P131_132	J131	J132	25	11	100	0	Open
P132_133	J132	J133	25	11	100	0	Open
P133_134	J133	J134	25	11	100	0	Open
P134_135	J134	J135	25	11	100	0	Open
P135_136	J135	J136	25	11	100	0	Open
P136_137	J136	J137	25	11	100	0	Open
P137_138	J137	J138	25	11	100	0	Open
P138_139	J138	J139	25	11	100	0	Open
P139_140	J139	J140	25	11	100	0	Open
P140_141	J140	J141	25	11	100	0	Open
P141_142	J141	J142	25	11	100	0	Open
P142_143	J142	J143	25	11	100	0	Open
P143_144	J143	J144	25	11	100	0	Open
P144_145	J144	J145	25	11	100	0	Open
P145_146	J145	J146	25	11	100	0	Open
P146_147	J146	J147	25	11	100	0	Open
P147_148	J147	J148	25	11	100	0	Open
P148_149	J148	J149	25	11	100	0	Open
P149_150	J149	J150	25	11	100	0	Open
P151_152	J151	J152	25	11	100	0	Open
P152_153	J152	J153	25	11	100	0	Open
P153_154	J153	J154	25	11	100	0	Open
P154_155	J154	J155	25	11	100	0	Open
P155_156	J155	J156	25	11	100	0	Open
P156_157	J156	J157	25	11	100	0	Open
P157_158	J157	J158	25	11	100	0	Open
P158_159	J158	J159	25	11	100	0	Open
P159_160	J159	J160	25	11	100	0	Open
P160_161	J160	J161	25	11	100	0	Open
P161_162	J161	J162	25	11	100	0	Open
P162_163	J162	J163	25	11	100	0	Open
P163_164	J163	J164	25	11	100	0	Open
P164_165	J164	J165	25	11	100	0	Open
P165_166	J165	J166	25	11	100	0	Open
P166_167	J166	J167	25	11	100	0	Open
P167_168	J167	J168	25	11	100	0	Open
P168_169	J168	J169	25	11	100	0	Open
P169_170	J169	J170	25	11	100	0	Open
P170_171	J170	J171	25	11	100	0	Open
P171_172	J171	J172	25	11	100	0	Open
P172_173	J172	J173	25	11	100	0	Open
P173_174	J173	J174	25	11	100	0	Open
P174_175	J174	J175	25	11	100	0	Open
P175_176	J175	J176	25	11	100	0	Open
P176_177	J176	J177	25	11	100	0	Open
P177_178	J177	J178	25	11	100	0	Open
P178_179	J178	J179	25	11	100	0	Open
P179_180	J179	J180	25	11	100	0	Open
P181_182	J181	J182	25	11	100	0	Open
P182_183	J182	J183	25	11	100	0	Open
P183_184	J183	J184	25	11	100	0	Open
P184_185	J184	J185	25	11	100	0	Open
P185_186	J185	J186	25	11	100	0	Open
P186_187	J186	J187	25	11	100	0	Open
P187_188	J187	J188	25	11	100	0	Open
P188_189	J188	J189	25	11	100	0	Open
P189_190	J189	J190	25	11	100	0	Open
P190_191	J190	J191	25	11	100	0	Open
P191_192	J191	J192	25	11	100	0	Open
P192_193	J192	J193	25	11	100	0	Open
P193_194	J193	J194	25	11	100	0	Open
P194_195	J194	J195	25	11	100	0	Open
P195_196	J195	J196	25	11	100	0	Open
P196_197	J196	J197	25	11	100	0	Open
P197_198	J197	J198	25	11	100	0	Open
P198_199	J198	J199	25	11	100	0	Open
P199_200	J199	J200	25	11	100	0	Open
P200_201	J200	J201	25	11	100	0	Open
P201_202	J201	J202	25	11	100	0	Open
P202_203	J202	J203	25	11	100	0	Open
P203_204	J203	J204	25	11	100	0	Open
P204_205	J204	J205	25	11	100	0	Open
P205_206	J205	J206	25	11	100	0	Open
P206_207	J206	J207	25	11	100	0	Open
P207_208	J207	J208	25	11	100	0	Open
P208_209	J208	J209	25	11	100	0	Open
P209_210	J209	J210	25	11	100	0	Open
P211_212	J211	J212	25	11	100	0	Open
P212_213	J212	J213	25	11	100	0	Open
P213_214	J213	J214	25	11	100	0	Open
P214_215	J214	J215	25	11	100	0	Open
P215_216	J215	J216	25	11	100	0	Open
P216_217	J216	J217	25	11	100	0	Open
P217_218	J217	J218	25	11	100	0	Open
P218_219	J218	J219	25	11	100	0	Open
P219_220	J219	J220	25	11	100	0	Open
P220_221	J220	J221	25	11	100	0	Open
P221_222	J221	J222	25	11	100	0	Open
P222_223	J222	J223	25	11	100	0	Open
P223_224	J223	J224	25	11	100	0	Open
P224_225	J224	J225	25	11	100	0	Open
P225_226	J225	J226	25	11	100	0	Open
P226_227	J226	J227	25	11	100	0	Open
P227_228	J227	J228	25	11	100	0	Open
P228_229	J228	J229	25	11	100	0	Open
P229_230	J229	J230	25	11	100	0	Open
P230_231	J230	J231	25	11	100	0	Open
P231_232	J231	J232	25	11	100	0	Open
P232_233	J232	J233	25	11	100	0	Open
P233_234	J233	J234	25	11	100	0	Open
P234_235	J234	J235	25	11	100	0	Open
P235_236	J235	J236	25	11	100	0	Open
P236_237	J236	J237	25	11	100	0	Open
P237_238	J237	J238	25	11	100	0	Open
P238_239	J238	J239	25	11	100	0	Open
P239_240	J239	J240	25	11	100	0	Open
P241_242	J241	J242	25	11	100	0	Open
P242_243	J242	J243	25	11	100	0	Open
P243_244	J243	J244	25	11	100	0	Open
P244_245	J244	J245	25	11	100	0	Open
P245_246	J245	J246	25	11	100	0	Open
P246_247	J246	J247	25	11	100	0	Open
P247_248	J247	J248	25	11	100	0	Open
P248_249	J248	J249	25	11	100	0	Open
P249_250	J249	J250	25	11	100	0	Open
P250_251	J250	J251	25	11	100	0	Open
P251_252	J251	J252	25	11	100	0	Open
P252_253	J252	J253	25	11	100	0	Open
P253_254	J253	J254	25	11	100	0	Open
P254_255	J254	J255	25	11	100	0	Open
P255_256	J255	J256	25	11	100	0	Open
P256_257	J256	J257	25	11	100	0	Open
P257_258	J257	J258	25	11	100	0	Open
P258_259	J258	J259	25	11	100	0	Open
P259_260	J259	J260	25	11	100	0	Open
P260_261	J260	J261	25	11	100	0	Open
P261_262	J261	J262	25	11	100	0	Open
P262_263	J262	J263	25	11	100	0	Open
P263_264	J263	J264	25	11	100	0	Open
P264_265	J264	J265	25	11	100	0	Open
P265_266	J265	J266	25	11	100	0	Open
P266_267	J266	J267	25	11	100	0	Open
P267_268	J267	J268	25	11	100	0	Open
P268_269	J268	J269	25	11	100	0	Open
P269_270	J269	J270	25	11	100	0	Open
P271_272	J271	J272	25	11	100	0	Open
P272_273	J272	J273	25	11	100	0	Open
P273_274	J273	J274	25	11	100	0	Open
P274_275	J274	J275	25	11	100	0	Open
P275_276	J275	J276	25	11	100	0	Open
P276_277	J276	J277	25	11	100	0	Open
P277_278	J277	J278	25	11	100	0	Open
P278_279	J278	J279	25	11	100	0	Open
P279_280	J279	J280	25	11	100	0	Open
P280_281	J280	J281	25	11	100	0	Open
P281_282	J281	J282	25	11	100	0	Open
P282_283	J282	J283	25	11	100	0	Open
P283_284	J283	J284	25	11	100	0	Open
P284_285	J284	J285	25	11	100	0	Open
P285_286	J285	J286	25	11	100	0	Open
P286_287	J286	J287	25	11	100	0	Open
P287_288	J287	J288	25	11	100	0	Open
P288_289	J288	J289	25	11	100	0	Open
P289_290	J289	J290	25	11	100	0	Open
P290_291	J290	J291	25	11	100	0	Open
P291_292	J291	J292	25	11	100	0	Open
P292_293	J292	J293	25	11	100	0	Open
P293_294	J293	J294	25	11	100	0	Open
P294_295	J294	J295	25	11	100	0	Open
P295_296	J295	J296	25	11	100	0	Open
P296_297	J296	J297	25	11	100	0	Open
P297_298	J297	J298	25	11	100	0	Open
P298_299	J298	J299	25	11	100	0	Open
P299_300	J299	J300	25	11	100	0	Open
P301_302	J301	J302	25	11	100	0	Open
P302_303	J302	J303	25	11	100	0	Open
P303_304	J303	J304	25	11	100	0	Open
P304_305	J304	J305	25	11	100	0	Open
P305_306	J305	J306	25	11	100	0	Open
P306_307	J306	J307	25	11	100	0	Open
P307_308	J307	J308	25	11	100	0	Open
P308_309	J308	J309	25	11	100	0	Open
P309_310	J309	J310	25	11	100	0	Open
P310_311	J310	J311	25	11	100	0	Open
P311_312	J311	J312	25	11	100	0	Open
P312_313	J312	J313	25	11	100	0	Open
P313_314	J313	J314	25	11	100	0	Open
P314_315	J314	J315	25	11	100	0	Open
P315_316	J315	J316	25	11	100	0	Open
P316_317	J316	J317	25	11	100	0	Open
P317_318	J317	J318	25	11	100	0	Open
P318_319	J318	J319	25	11	100	0	Open
P319_320	J319	J320	25	11	100	0	Open
P320_321	J320	J321	25	11	100	0	Open
P321_322	J321	J322	25	11	100	0	Open
P322_323	J322	J323	25	11	100	0	Open
P323_324	J323	J324	25	11	100	0	Open
P324_325	J324	J325	25	11	100	0	Open
P325_326	J325	J326	25	11	100	0	Open
P326_327	J326	J327	25	11	100	0	Open
P327_328	J327	J328	25	11	100	0	Open
P328_329	J328	J329	25	11	100	0	Open
P329_330	J329	J330	25	11	100	0	Open
P331_332	J331	J332	25	11	100	0	Open
P332_333	J332	J333	25	11	100	0	Open
P333_334	J333	J334	25	11	100	0	Open
P334_335	J334	J335	25	11	100	0	Open
P335_336	J335	J336	25	11	100	0	Open
P336_337	J336	J337	25	11	100	0	Open
P337_338	J337	J338	25	11	100	0	Open
P338_339	J338	J339	25	11	100	0	Open
P339_340	J339	J340	25	11	100	0	Open
P340_341	J340	J341	25	11	100	0	Open
P341_342	J341	J342	25	11	100	0	Open
P342_343	J342	J343	25	11	100	0	Open
P343_344	J343	J344	25	11	100	0	Open
P344_345	J344	J345	25	11	100	0	Open
P345_346	J345	J346	25	11	100	0	Open
P346_347	J346	J347	25	11	100	0	Open
P347_348	J347	J348	25	11	100	0	Open
P348_349	J348	J349	25	11	100	0	Open
P349_350	J349	J350	25	11	100	0	Open
P350_351	J350	J351	25	11	100	0	Open
P351_352	J351	J352	25	11	100	0	Open
P352_353	J352	J353	25	11	100	0	Open
P353_354	J353	J354	25	11	100	0	Open
P354_355	J354	J355	25	11	100	0	Open
P355_356	J355	J356	25	11	100	0	Open
P356_357	J356	J357	25	11	100	0	Open
P357_358	J357	J358	25	11	100	0	Open
P358_359	J358	J359	25	11	100	0	Open
P359_360	J359	J360	25	11	100	0	Open
P361_362	J361	J362	25	11	100	0	Open
P362_363	J362	J363	25	11	100	0	Open
P363_364	J363	J364	25	11	100	0	Open
P364_365	J364	J365	25	11	100	0	Open
P365_366	J365	J366	25	11	100	0	Open
P366_367	J366	J367	25	11	100	0	Open
P367_368	J367	J368	25	11	100	0	Open
P368_369	J368	J369	25	11	100	0	Open
P369_370	J369	J370	25	11	100	0	Open
P370_371	J370	J371	25	11	100	0	Open
P371_372	J371	J372	25	11	100	0	Open
P372_373	J372	J373	25	11	100	0	Open
P373_374	J373	J374	25	11	100	0	Open
P374_375	J374	J375	25	11	100	0	Open
P375_376	J375	J376	25	11	100	0	Open
P376_377	J376	J377	25	11	100	0	Open
P377_378	J377	J378	25	11	100	0	Open
P378_379	J378	J379	25	11	100	0	Open
P379_380	J379	J380	25	11	100	0	Open
P380_381	J380	J381	25	11	100	0	Open
P381_382	J381	J382	25	11	100	0	Open
P382_383	J382	J383	25	11	100	0	Open
P383_384	J383	J384	25	11	100	0	Open
P384_385	J384	J385	25	11	100	0	Open
P385_386	J385	J386	25	11	100	0	Open
P386_387	J386	J387	25	11	100	0	Open
P387_388	J387	J388	25	11	100	0	Open
P388_389	J388	J389	25	11	100	0	Open
P389_390	J389	J390	25	11	100	0	Open
P391_392	J391	J392	25	11	100	0	Open
P392_393	J392	J393	25	11	100	0	Open
P393_394	J393	J394	25	11	100	0	Open
P394_395	J394	J395	25	11	100	0	Open
P395_396	J395	J396	25	11	100	0	Open
P396_397	J396	J397	25	11	100	0	Open
P397_398	J397	J398	25	11	100	0	Open
P398_399	J398	J399	25	11	100	0	Open
P399_400	J399	J400	25	11	100	0	Open
P400_401	J400	J401	25	11	100	0	Open
P401_402	J401	J402	25	11	100	0	Open
P402_403	J402	J403	25	11	100	0	Open
P403_404	J403	J404	25	11	100	0	Open
P404_405	J404	J405	25	11	100	0	Open
P405_406	J405	J406	25	11	100	0	Open
P406_407	J406	J407	25	11	100	0	Open
P407_408	J407	J408	25	11	100	0	Open
P408_409	J408	J409	25	11	100	0	Open
P409_410	J409	J410	25	11	100	0	Open
P410_411	J410	J411	25	11	100	0	Open
P411_412	J411	J412	25	11	100	0	Open
P412_413	J412	J413	25	11	100	0	Open
P413_414	J413	J414	25	11	100	0	Open
P414_415	J414	J415	25	11	100	0	Open
P415_416	J415	J416	25	11	100	0	Open
P416_417	J416	J417	25	11	100	0	Open
P417_418	J417	J418	25	11	100	0	Open
P418_419	J418	J419	25	11	100	0	Open
P419_420	J419	J420	25	11	100	0	Open
P421_422	J421	J422	25	11	100	0	Open
P422_423	J422	J423	25	11	100	0	Open
P423_424	J423	J424	25	11	100	0	Open
P424_425	J424	J425	25	11	100	0	Open
P425_426	J425	J426	25	11	100	0	Open
P426_427	J426	J427	25	11	100	0	Open
P427_428	J427	J428	25	11	100	0	Open
P428_429	J428	J429	25	11	100	0	Open
P429_430	J429	J430	25	11	100	0	Open
P430_431	J430	J431	25	11	100	0	Open
P431_432	J431	J432	25	11	100	0	Open
P432_433	J432	J433	25	11	100	0	Open
P433_434	J433	J434	25	11	100	0	Open
P434_435	J434	J435	25	11	100	0	Open
P435_436	J435	J436	25	11	100	0	Open
P436_437	J436	J437	25	11	100	0	Open
P437_438	J437	J438	25	11	100	0	Open
P438_439	J438	J439	25	11	100	0	Open
P439_440	J439	J440	25	11	100	0	Open
P440_441	J440	J441	25	11	100	0	Open
P441_442	J441	J442	25	11	100	0	Open
P442_443	J442	J443	25	11	100	0	Open
P443_444	J443	J444	25	11	100	0	Open
P444_445	J444	J445	25	11	100	0	Open
P445_446	J445	J446	25	11	100	0	Open
P446_447	J446	J447	25	11	100	0	Open
P447_448	J447	J448	25	11	100	0	Open
P448_449	J448	J449	25	11	100	0	Open
P449_450	J449	J450	25	11	100	0	Open
P451_452	J451	J452	25	11	100	0	Open
P452_453	J452	J453	25	11	100	0	Open
P453_454	J453	J454	25	11	100	0	Open
P454_455	J454	J455	25	11	100	0	Open
P455_456	J455	J456	25	11	100	0	Open
P456_457	J456	J457	25	11	100	0	Open
P457_458	J457	J458	25	11	100	0	Open
P458_459	J458	J459	25	11	100	0	Open
P459_460	J459	J460	25	11	100	0	Open
P460_461	J460	J461	25	11	100	0	Open
P461_462	J461	J462	25	11	100	0	Open
P462_463	J462	J463	25	11	100	0	Open
P463_464	J463	J464	25	11	100	0	Open
P466_467	J466	J467	25	11	100	0	Open
P467_468	J467	J468	25	11	100	0	Open
P468_469	J468	J469	25	11	100	0	Open
P469_470	J469	J470	25	11	100	0	Open
P470_471	J470	J471	25	11	100	0	Open
P471_472	J471	J472	25	11	100	0	Open
P472_473	J472	J473	25	11	100	0	Open
P473_474	J473	J474	25	11	100	0	Open
P474_475	J474	J475	25	11	100	0	Open
P475_476	J475	J476	25	11	100	0	Open
P476_477	J476	J477	25	11	100	0	Open
P477_478	J477	J478	25	11	100	0	Open
P478_479	J478	J479	25	11	100	0	Open
P479_480	J479	J480	25	11	100	0	Open
P481_482	J481	J482	25	11	100	0	Open
P482_483	J482	J483	25	11	100	0	Open
P483_484	J483	J484	25	11	100	0	Open
P484_485	J484	J485	25	11	100	0	Open
P485_486	J485	J486	25	11	100	0	Open
P486_487	J486	J487	25	11	100	0	Open
P487_488	J487	J488	25	11	100	0	Open
P488_489	J488	J489	25	11	100	0	Open
P489_490	J489	J490	25	11	100	0	Open
P490_491	J490	J491	25	11	100	0	Open
P491_492	J491	J492	25	11	100	0	Open
P492_493	J492	J493	25	11	100	0	Open
P493_494	J493	J494	25	11	100	0	Open
P494_495	J494	J495	25	11	100	0	Open
P495_496	J495	J496	25	11	100	0	Open
P496_497	J496	J497	25	11	100	0	Open
P497_498	J497	J498	25	11	100	0	Open
P498_499	J498	J499	25	11	100	0	Open
P499_500	J499	J500	25	11	100	0	Open
P500_501	J500	J501	25	11	100	0	Open
P501_502	J501	J502	25	11	100	0	Open
P502_503	J502	J503	25	11	100	0	Open
P503_504	J503	J504	25	11	100	0	Open
P504_505	J504	J505	25	11	100	0	Open
P505_506	J505	J506	25	11	100	0	Open
P506_507	J506	J507	25	11	100	0	Open
P507_508	J507	J508	25	11	100	0	Open
P508_509	J508	J509	25	11	100	0	Open
P509_510	J509	J510	25	11	100	0	Open
P511_512	J511	J512	25	11	100	0	Open
P512_513	J512	J513	25	11	100	0	Open
P513_514	J513	J514	25	11	100	0	Open
P514_515	J514	J515	25	11	100	0	Open
P515_516	J515	J516	25	11	100	0	Open
P516_517	J516	J517	25	11	100	0	Open
P517_518	J517	J518	25	11	100	0	Open
P518_519	J518	J519	25	11	100	0	Open
P519_520	J519	J520	25	11	100	0	Open
P520_521	J520	J521	25	11	100	0	Open
P521_522	J521	J522	25	11	100	0	Open
P522_523	J522	J523	25	11	100	0	Open
P523_524	J523	J524	25	11	100	0	Open
P524_525	J524	J525	25	11	100	0	Open
P525_526	J525	J526	25	11	100	0	Open
P526_527	J526	J527	25	11	100	0	Open
P527_528	J527	J528	25	11	100	0	Open
P528_529	J528	J529	25	11	100	0	Open
P529_530	J529	J530	25	11	100	0	Open
P530_531	J530	J531	25	11	100	0	Open
P531_532	J531	J532	25	11	100	0	Open
P532_533	J532	J533	25	11	100	0	Open
P533_534	J533	J534	25	11	100	0	Open
P534_535	J534	J535	25	11	100	0	Open
P535_536	J535	J536	25	11	100	0	Open
P536_537	J536	J537	25	11	100	0	Open
P537_538	J537	J538	25	11	100	0	Open
P538_539	J538	J539	25	11	100	0	Open
P539_540	J539	J540	25	11	100	0	Open
P541_542	J541	J542	25	11	100	0	Open
P542_543	J542	J543	25	11	100	0	Open
P543_544	J543	J544	25	11	100	0	Open
P544_545	J544	J545	25	11	100	0	Open
P545_546	J545	J546	25	11	100	0	Open
P546_547	J546	J547	25	11	100	0	Open
P547_548	J547	J548	25	11	100	0	Open
P548_549	J548	J549	25	11	100	0	Open
P549_550	J549	J550	25	11	100	0	Open
P550_551	J550	J551	25	11	100	0	Open
P551_552	J551	J552	25	11	100	0	Open
P552_553	J552	J553	25	11	100	0	Open
P553_554	J553	J554	25	11	100	0	Open
P554_555	J554	J555	25	11	100	0	Open
P555_556	J555	J556	25	11	100	0	Open
P556_557	J556	J557	25	11	100	0	Open
P557_558	J557	J558	25	11	100	0	Open
P558_559	J558	J559	25	11	100	0	Open
P559_560	J559	J560	25	11	100	0	Open
P560_561	J560	J561	25	11	100	0	Open
P561_562	J561	J562	25	11	100	0	Open
P562_563	J562	J563	25	11	100	0	Open
P563_564	J563	J564	25	11	100	0	Open
P564_565	J564	J565	25	11	100	0	Open
P565_566	J565	J566	25	11	100	0	Open
P566_567	J566	J567	25	11	100	0	Open
P567_568	J567	J568	25	11	100	0	Open
P568_569	J568	J569	25	11	100	0	Open
P569_570	J569	J570	25	11	100	0	Open
P571_572	J571	J572	25	11	100	0	Open
P572_573	J572	J573	25	11	100	0	Open
P573_574	J573	J574	25	11	100	0	Open
P574_575	J574	J575	25	11	100	0	Open
P575_576	J575	J576	25	11	100	0	Open
P576_577	J576	J577	25	11	100	0	Open
P577_578	J577	J578	25	11	100	0	Open
P578_579	J578	J579	25	11	100	0	Open
P579_580	J579	J580	25	11	100	0	Open
P580_581	J580	J581	25	11	100	0	Open
P581_582	J581	J582	25	11	100	0	Open
P582_583	J582	J583	25	11	100	0	Open
P583_584	J583	J584	25	11	100	0	Open
P584_585	J584	J585	25	11	100	0	Open
P585_586	J585	J586	25	11	100	0	Open
P586_587	J586	J587	25	11	100	0	Open
P587_588	J587	J588	25	11	100	0	Open
P588_589	J588	J589	25	11	100	0	Open
P589_590	J589	J590	25	11	100	0	Open
P590_591	J590	J591	25	11	100	0	Open
P591_592	J591	J592	25	11	100	0	Open
P592_593	J592	J593	25	11	100	0	Open
P593_594	J593	J594	25	11	100	0	Open
P594_595	J594	J595	25	11	100	0	Open
P595_596	J595	J596	25	11	100	0	Open
P596_597	J596	J597	25	11	100	0	Open
P597_598	J597	J598	25	11	100	0	Open
P598_599	J598	J599	25	11	100	0	Open
P599_600	J599	J600	25	11	100	0	Open
P601_602	J601	J602	25	11	100	0	Open
P602_603	J602	J603	25	11	100	0	Open
P603_604	J603	J604	25	11	100	0	Open
P604_605	J604	J605	25	11	100	0	Open
P605_606	J605	J606	25	11	100	0	Open
P606_607	J606	J607	25	11	100	0	Open
P607_608	J607	J608	25	11	100	0	Open
P608_609	J608	J609	25	11	100	0	Open
P609_610	J609	J610	25	11	100	0	Open
P610_611	J610	J611	25	11	100	0	Open
P611_612	J611	J612	25	11	100	0	Open
P612_613	J612	J613	25	11	100	0	Open
P613_614	J613	J614	25	11	100	0	Open
P614_615	J614	J615	25	11	100	0	Open
P615_616	J615	J616	25	11	100	0	Open
P616_617	J616	J617	25	11	100	0	Open
P617_618	J617	J618	25	11	100	0	Open
P618_619	J618	J619	25	11	100	0	Open
P619_620	J619	J620	25	11	100	0	Open
P620_621	J620	J621	25	11	100	0	Open
P621_622	J621	J622	25	11	100	0	Open
P622_623	J622	J623	25	11	100	0	Open
P623_624	J623	J624	25	11	100	0	Open