[TITLE]


[JUNCTIONS]
;ID              	Elev        	Demand      	Pattern         
 Junction_12     	646.465200  	0           	                	;
 Junction_13     	649.405800  	0           	                	;
 Junction_1335   	599.274200  	0           	                	;
 Junction_1336   	599.274200  	0           	                	;
 Junction_1337   	596.511300  	0           	                	;
 Junction_1338   	596.511300  	0           	                	;
 Junction_1339   	596.511300  	0           	                	;
 Junction_1340   	596.511300  	0           	                	;
 Junction_1341   	596.511300  	0           	                	;
 Junction_1342   	596.511300  	0           	                	;
 Junction_1343   	590.137600  	0           	                	;
 Junction_1344   	590.137600  	0.000019    	Utenze_CSA      	;
 Junction_1345   	593.241500  	0           	                	;
 Junction_1346   	589.214400  	0           	                	;
 Junction_1347   	597.726100  	0           	                	;
 Junction_1348   	597.726100  	0           	                	;
 Junction_1349   	597.726100  	0.000891    	Utenze_CSA      	;
 Junction_1350   	596.902100  	0           	                	;
 Junction_1351   	596.902100  	0           	                	;
 Junction_1352   	596.902100  	0.000990    	Utenze_CSA      	;
 Junction_1353   	596.902100  	0           	                	;
 Junction_1354   	596.902100  	0           	                	;
 Junction_1355   	596.902100  	0           	                	;
 Junction_1356   	599.300400  	0           	                	;
 Junction_1357   	599.299000  	0           	                	;
 Junction_1358   	599.299000  	0           	                	;
 Junction_1359   	599.299000  	0           	                	;
 Junction_1360   	599.299000  	0           	                	;
 Junction_1361   	599.299000  	0           	                	;
 Junction_1362   	600.621100  	0.000205    	Utenze_CSA      	;
 Junction_1363   	600.621100  	0           	                	;
 Junction_1364   	603.193600  	0.000055    	Utenze_CSA      	;
 Junction_1365   	603.193600  	0           	                	;
 Junction_1366   	603.193600  	0           	                	;
 Junction_1367   	603.193600  	0           	                	;
 Junction_1368   	603.193600  	0           	                	;
 Junction_1369   	603.193600  	0           	                	;
 Junction_1370   	603.121500  	0           	                	;
 Junction_1371   	602.374500  	0           	                	;
 Junction_1372   	602.374500  	0.000056    	Utenze_CSA      	;
 Junction_1373   	603.193600  	0           	                	;
 Junction_1374   	603.121500  	0           	                	;
 Junction_1375   	603.893600  	0           	                	;
 Junction_1376   	603.893600  	0           	                	;
 Junction_1377   	603.893600  	0.000329    	Utenze_CSA      	;
 Junction_1378   	603.893600  	0           	                	;
 Junction_1379   	602.374500  	0           	                	;
 Junction_1380   	602.374500  	0           	                	;
 Junction_1381   	605.855600  	0           	                	;
 Junction_1382   	605.855600  	0           	                	;
 Junction_1383   	605.855600  	0           	                	;
 Junction_1384   	605.855600  	0           	                	;
 Junction_1385   	605.855600  	0           	                	;
 Junction_1386   	605.855600  	0           	                	;
 Junction_1387   	604.763900  	0           	                	;
 Junction_1388   	604.763900  	0           	                	;
 Junction_1389   	606.811800  	0           	                	;
 Junction_1390   	605.855600  	0           	                	;
 Junction_1391   	605.855600  	0.000891    	Utenze_CSA      	;
 Junction_1392   	606.811800  	0.001150    	Utenze_CSA      	;
 Junction_1393   	606.811800  	0.000383    	Utenze_CSA      	;
 Junction_1394   	605.855600  	0           	                	;
 Junction_1395   	605.855600  	0           	                	;
 Junction_1396   	609.307100  	0           	                	;
 Junction_1397   	609.307100  	0           	                	;
 Junction_1398   	609.307100  	0           	                	;
 Junction_1399   	609.307100  	0           	                	;
 Junction_14     	649.405800  	0           	                	;
 Junction_1400   	611.880800  	0.001214    	Utenze_CSA      	;
 Junction_1401   	613.080800  	0           	                	;
 Junction_1402   	609.516700  	0           	                	;
 Junction_1403   	609.516700  	0.000447    	Utenze_CSA      	;
 Junction_1404   	609.516700  	0           	                	;
 Junction_1405   	610.725400  	0           	                	;
 Junction_1406   	610.725400  	0           	                	;
 Junction_1407   	604.924100  	0.002205    	Utenze_CSA      	;
 Junction_1408   	604.924100  	0           	                	;
 Junction_1409   	605.855600  	0           	                	;
 Junction_1410   	607.641800  	0           	                	;
 Junction_1411   	605.855600  	0.000012    	Utenze_CSA      	;
 Junction_1412   	607.641800  	0.001616    	Utenze_CSA      	;
 Junction_1413   	607.641800  	0           	                	;
 Junction_1414   	609.756800  	0           	                	;
 Junction_1415   	609.756800  	0           	                	;
 Junction_1416   	609.756800  	0           	                	;
 Junction_1417   	609.756800  	0           	                	;
 Junction_1418   	609.756800  	0           	                	;
 Junction_1419   	609.756800  	0           	                	;
 Junction_1420   	605.767900  	0.000991    	Utenze_CSA      	;
 Junction_1421   	605.051200  	0           	                	;
 Junction_1422   	605.767900  	0           	                	;
 Junction_1423   	605.767900  	0.000109    	Utenze_CSA      	;
 Junction_1424   	611.871900  	0.000831    	Utenze_CSA      	;
 Junction_1425   	611.871900  	0           	                	;
 Junction_1426   	610.590800  	0           	                	;
 Junction_1427   	609.756800  	0           	                	;
 Junction_1428   	610.288900  	0.000228    	Utenze_CSA      	;
 Junction_1429   	610.288900  	0           	                	;
 Junction_1430   	611.038000  	0.000415    	Utenze_CSA      	;
 Junction_1431   	611.038000  	0           	                	;
 Junction_1432   	610.288900  	0           	                	;
 Junction_1433   	610.288900  	0           	                	;
 Junction_1434   	608.202800  	0           	                	;
 Junction_1435   	608.202800  	0           	                	;
 Junction_1436   	608.202800  	0           	                	;
 Junction_1437   	608.202800  	0           	                	;
 Junction_1438   	610.288900  	0           	                	;
 Junction_1439   	610.672900  	0           	                	;
 Junction_1440   	608.361800  	0           	                	;
 Junction_1441   	608.361800  	0.000891    	Utenze_CSA      	;
 Junction_1442   	612.691300  	0.000891    	Utenze_CSA      	;
 Junction_1443   	610.590800  	0           	                	;
 Junction_1444   	612.691300  	0           	                	;
 Junction_1445   	612.691300  	0           	                	;
 Junction_1446   	613.090800  	0.000384    	Utenze_CSA      	;
 Junction_1447   	611.247400  	0.001342    	Utenze_CSA      	;
 Junction_1448   	610.590800  	0.000045    	Utenze_CSA      	;
 Junction_1449   	610.590800  	0           	                	;
 Junction_1450   	611.247400  	0.000891    	Utenze_CSA      	;
 Junction_1451   	610.590800  	0.000209    	Utenze_CSA      	;
 Junction_1452   	608.475700  	0           	                	;
 Junction_1453   	612.701300  	0.000174    	Utenze_CSA      	;
 Junction_1454   	612.701300  	0           	                	;
 Junction_1455   	612.691300  	0           	                	;
 Junction_1456   	614.520600  	0           	                	;
 Junction_1457   	614.520600  	0           	                	;
 Junction_1458   	613.986900  	0           	                	;
 Junction_1459   	613.986900  	0           	                	;
 Junction_1460   	613.986900  	0           	                	;
 Junction_1461   	613.986900  	0           	                	;
 Junction_1462   	613.986900  	0           	                	;
 Junction_1463   	613.986900  	0           	                	;
 Junction_1464   	613.986900  	0           	                	;
 Junction_1465   	613.986900  	0           	                	;
 Junction_1466   	613.986900  	0           	                	;
 Junction_1467   	613.986900  	0           	                	;
 Junction_1468   	614.520600  	0           	                	;
 Junction_1469   	620.530400  	0           	                	;
 Junction_1470   	620.530400  	0.002716    	Utenze_CSA      	;
 Junction_1471   	627.533100  	0           	                	;
 Junction_1472   	624.354400  	0           	                	;
 Junction_1473   	629.086100  	0.000891    	Utenze_CSA      	;
 Junction_1474   	635.252100  	0.000891    	Utenze_CSA      	;
 Junction_1475   	632.601500  	0           	                	;
 Junction_1476   	641.628800  	0           	                	;
 Junction_1477   	639.830200  	0           	                	;
 Junction_1478   	617.383200  	0.000607    	Utenze_CSA      	;
 Junction_1479   	617.383200  	0           	                	;
 Junction_1480   	617.383200  	0           	                	;
 Junction_1481   	617.383200  	0           	                	;
 Junction_1482   	616.551800  	0           	                	;
 Junction_1483   	616.551800  	0           	                	;
 Junction_1484   	616.551800  	0.000131    	Utenze_CSA      	;
 Junction_1485   	616.551800  	0           	                	;
 Junction_1486   	616.551800  	0           	                	;
 Junction_1487   	616.551800  	0           	                	;
 Junction_1488   	616.551800  	0           	                	;
 Junction_1489   	616.551800  	0           	                	;
 Junction_1490   	616.551800  	0           	                	;
 Junction_1491   	616.551800  	0           	                	;
 Junction_1492   	616.551800  	0           	                	;
 Junction_1493   	616.551800  	0           	                	;
 Junction_1494   	616.551800  	0           	                	;
 Junction_1495   	616.551800  	0.001616    	Utenze_CSA      	;
 Junction_1496   	616.867200  	0.000664    	Utenze_CSA      	;
 Junction_1497   	616.867200  	0.000156    	Utenze_CSA      	;
 Junction_1498   	613.854100  	0.001616    	Utenze_CSA      	;
 Junction_1499   	613.854100  	0           	                	;
 Junction_1500   	613.950200  	0           	                	;
 Junction_1501   	610.872100  	0           	                	;
 Junction_1502   	610.872100  	0           	                	;
 Junction_1503   	610.872100  	0           	                	;
 Junction_1504   	594.378700  	0           	                	;
 Junction_1505   	595.619000  	0.000891    	Utenze_CSA      	;
 Junction_1506   	597.726100  	0           	                	;
 Junction_1507   	599.300400  	0.000139    	Utenze_CSA      	;
 Junction_1508   	599.300400  	0           	                	;
 Junction_1509   	606.811800  	0           	                	;
 Junction_1510   	606.811800  	0           	                	;
 Junction_1511   	613.080800  	0.000114    	Utenze_CSA      	;
 Junction_1528   	610.872100  	0           	                	;
 Junction_1529   	601.113200  	0.001981    	Utenze_CSA      	;
 Junction_1530   	601.113200  	0.000128    	Utenze_CSA      	;
 Junction_1531   	602.374500  	0           	                	;
 Junction_1532   	602.374500  	0           	                	;
 Junction_1533   	598.875200  	0           	                	;
 Junction_1534   	602.538300  	0           	                	;
 Junction_1535   	602.538300  	0           	                	;
 Junction_1536   	602.538300  	0           	                	;
 Junction_1537   	602.538300  	0           	                	;
 Junction_1538   	602.538300  	0           	                	;
 Junction_1539   	602.538300  	0.000046    	Utenze_CSA      	;
 Junction_1540   	603.823900  	0.000895    	Utenze_CSA      	;
 Junction_1541   	606.888400  	0.004250    	Utenze_CSA      	;
 Junction_1542   	603.823900  	0           	                	;
 Junction_1543   	606.888400  	0           	                	;
 Junction_1544   	605.173200  	0           	                	;
 Junction_1545   	605.173200  	0           	                	;
 Junction_1546   	606.669800  	0.004661    	Utenze_CSA      	;
 Junction_1547   	606.669800  	0           	                	;
 Junction_1548   	609.314000  	0.000022    	Utenze_CSA      	;
 Junction_1549   	609.314000  	0           	                	;
 Junction_1550   	601.113200  	0           	                	;
 Junction_1551   	602.538300  	0           	                	;
 Junction_1552   	612.635700  	0.000479    	Utenze_CSA      	;
 Junction_1553   	612.635700  	0           	                	;
 Junction_1554   	612.635700  	0           	                	;
 Junction_1555   	610.755300  	0           	                	;
 Junction_1556   	612.635700  	0           	                	;
 Junction_1557   	612.635700  	0.004026    	Utenze_CSA      	;
 Junction_1558   	610.755300  	0           	                	;
 Junction_1559   	612.635700  	0           	                	;
 Junction_1560   	612.635700  	0           	                	;
 Junction_1561   	612.635700  	0           	                	;
 Junction_1562   	612.729000  	0           	                	;
 Junction_1563   	612.729000  	0           	                	;
 Junction_1564   	612.729000  	0           	                	;
 Junction_1565   	612.729000  	0           	                	;
 Junction_1566   	612.729000  	0.003898    	Utenze_CSA      	;
 Junction_1567   	612.729000  	0           	                	;
 Junction_1568   	612.729000  	0           	                	;
 Junction_1569   	612.729000  	0           	                	;
 Junction_1570   	612.729000  	0           	                	;
 Junction_1571   	612.729000  	0           	                	;
 Junction_1572   	613.080800  	0           	                	;
 Junction_1573   	613.080800  	0           	                	;
 Junction_1574   	611.194200  	0           	                	;
 Junction_1575   	613.524400  	0           	                	;
 Junction_1576   	611.194200  	0           	                	;
 Junction_1577   	611.194200  	0           	                	;
 Junction_1578   	611.194200  	0.004464    	Utenze_CSA      	;
 Junction_1579   	611.194200  	0.000891    	Utenze_CSA      	;
 Junction_1580   	611.194200  	0           	                	;
 Junction_1581   	611.194200  	0           	                	;
 Junction_1582   	609.656900  	0           	                	;
 Junction_1583   	611.194200  	0           	                	;
 Junction_1584   	611.341400  	0           	                	;
 Junction_1585   	611.341400  	0           	                	;
 Junction_1586   	611.341400  	0           	                	;
 Junction_1587   	611.341400  	0.000891    	Utenze_CSA      	;
 Junction_1588   	611.341400  	0           	                	;
 Junction_1589   	611.341400  	0.001023    	Utenze_CSA      	;
 Junction_1590   	611.341400  	0           	                	;
 Junction_1591   	611.341400  	0           	                	;
 Junction_1592   	613.081200  	0           	                	;
 Junction_1593   	609.934800  	0           	                	;
 Junction_1594   	610.347000  	0.002426    	Utenze_CSA      	;
 Junction_1595   	610.347000  	0           	                	;
 Junction_1596   	614.310500  	0           	                	;
 Junction_1597   	614.310500  	0           	                	;
 Junction_1598   	617.021700  	0           	                	;
 Junction_1599   	616.676300  	0.000735    	Utenze_CSA      	;
 Junction_1600   	617.021700  	0           	                	;
 Junction_1601   	617.021700  	0           	                	;
 Junction_1602   	616.676300  	0           	                	;
 Junction_1603   	615.051300  	0           	                	;
 Junction_1604   	617.383200  	0           	                	;
 Junction_1605   	617.383200  	0           	                	;
 Junction_1946   	605.718100  	0           	                	;
 Junction_1947   	611.027300  	0           	                	;
 Junction_1948   	611.027300  	0           	                	;
 Junction_1949   	610.755300  	0.001726    	Utenze_CSA      	;
 Junction_1950   	610.755300  	0           	                	;
 Junction_1974   	603.193600  	0.001023    	Utenze_CSA      	;
 Junction_1975   	617.021700  	0           	                	;
 Junction_1976   	617.021700  	0           	                	;
 Junction_1977   	617.021700  	0           	                	;
 Junction_1978   	617.021700  	0           	                	;
 Junction_1979   	617.383200  	0           	                	;
 Junction_1980   	617.740100  	0           	                	;
 Junction_1981   	615.826000  	0.000024    	Utenze_CSA      	;
 Junction_1982   	605.767900  	0           	                	;
 Junction_2091   	643.713600  	0           	                	;
 Junction_2092   	615.051300  	0.000164    	Utenze_CSA      	;
 Junction_2093   	615.051300  	0           	                	;
 Junction_2094   	613.986900  	0           	                	;
 Junction_2095   	605.767900  	0           	                	;
 Junction_2096   	606.116700  	0           	                	;
 Junction_2097   	600.621100  	0           	                	;
 Junction_2098   	598.875200  	0           	                	;
 Junction_2099   	596.740100  	0.004314    	Utenze_CSA      	;
 Junction_2100   	589.214400  	0.001438    	Utenze_CSA      	;
 Junction_2101   	601.463300  	0           	                	;
 Junction_2102   	611.325100  	0           	                	;
 Junction_2103   	611.325100  	0           	                	;
 Junction_2104   	612.635700  	0           	                	;
 Junction_2105   	612.729000  	0           	                	;
 Junction_2106   	612.729000  	0           	                	;
 Junction_2107   	606.153900  	0           	                	;
 Junction_2108   	611.027300  	0.000237    	Utenze_CSA      	;
 Junction_2109   	600.353300  	0.002972    	Utenze_CSA      	;
 Junction_2112   	616.583000  	0.002067    	Utenze_CSA      	;
 Junction_2137   	604.924100  	0           	                	;
 Junction_2331   	614.310500  	0           	                	;
 Junction_2332   	610.347000  	0.001789    	Utenze_CSA      	;
 Junction_2333   	611.341400  	0           	                	;
 Junction_2334   	613.074200  	0.000320    	Utenze_CSA      	;
 Junction_2335   	613.074200  	0.000831    	Utenze_CSA      	;
 Junction_2336   	609.314000  	0           	                	;
 Junction_2337   	605.173200  	0           	                	;
 Junction_2338   	606.888400  	0           	                	;
 Junction_2339   	600.027800  	0           	                	;
 Junction_2340   	602.538300  	0           	                	;
 Junction_2341   	593.241500  	0.000891    	Utenze_CSA      	;
 Junction_2342   	584.544100  	0.000891    	Utenze_CSA      	;
 Junction_2343   	596.511300  	0           	                	;
 Junction_2344   	596.511300  	0           	                	;
 Junction_2345   	595.269500  	0           	                	;
 Junction_2346   	602.374500  	0           	                	;
 Junction_2347   	599.299000  	0.001616    	Utenze_CSA      	;
 Junction_2348   	599.299000  	0           	                	;
 Junction_2349   	599.300400  	0           	                	;
 Junction_2350   	600.046800  	0.000891    	Utenze_CSA      	;
 Junction_2351   	603.893600  	0           	                	;
 Junction_2352   	602.051900  	0.000447    	Utenze_CSA      	;
 Junction_2353   	604.763900  	0.000642    	Utenze_CSA      	;
 Junction_2354   	604.924100  	0           	                	;
 Junction_2355   	605.855600  	0           	                	;
 Junction_2356   	607.641800  	0.002077    	Utenze_CSA      	;
 Junction_2357   	607.641800  	0           	                	;
 Junction_2358   	607.641800  	0.000351    	Utenze_CSA      	;
 Junction_2359   	609.756800  	0.000891    	Utenze_CSA      	;
 Junction_2360   	610.590800  	0.000607    	Utenze_CSA      	;
 Junction_2361   	612.691300  	0.003483    	Utenze_CSA      	;
 Junction_2362   	611.871900  	0           	                	;
 Junction_2363   	614.520600  	0           	                	;
 Junction_2364   	613.986900  	0.000091    	Utenze_CSA      	;
 Junction_2365   	613.986900  	0.000959    	Utenze_CSA      	;
 Junction_2366   	613.986900  	0           	                	;
 Junction_2367   	613.986900  	0           	                	;
 Junction_2368   	613.986900  	0           	                	;
 Junction_2369   	611.038000  	0           	                	;
 Junction_2370   	610.288900  	0           	                	;
 Junction_2371   	610.288900  	0           	                	;
 Junction_2372   	603.266500  	0           	                	;
 Junction_2373   	605.051200  	0.000670    	Utenze_CSA      	;
 Junction_2374   	616.867200  	0           	                	;
 Junction_2375   	613.854100  	0           	                	;
 Junction_2376   	609.307100  	0           	                	;
 Junction_2377   	609.307100  	0.001616    	Utenze_CSA      	;
 Junction_2378   	604.763900  	0           	                	;
 Junction_2379   	613.080800  	0           	                	;
 Junction_2380   	612.729000  	0           	                	;
 Junction_2381   	612.729000  	0           	                	;
 Junction_2382   	612.729000  	0.000891    	Utenze_CSA      	;
 Junction_2383   	612.729000  	0.000187    	Utenze_CSA      	;
 Junction_2384   	612.729000  	0           	                	;
 Junction_2385   	612.635700  	0           	                	;
 Junction_2635   	612.691300  	0           	                	;
 Junction_2636   	617.021700  	0           	                	;
 Junction_2637   	598.875200  	0           	                	;
 Junction_2638   	601.463300  	0.000363    	Utenze_CSA      	;
 Junction_2690   	596.740100  	0           	                	;
 Junction_2817   	639.830200  	0           	                	;
 Junction_2818   	639.830200  	0           	                	;
 Junction_2839   	605.855600  	0           	                	;
 Junction_3432   	613.986900  	0           	                	;
 Junction_3433   	613.986900  	0           	                	;
 Junction_3434   	613.986900  	0           	                	;
 Junction_3435   	613.986900  	0           	                	;
 Junction_3436   	613.986900  	0           	                	;
 Junction_3437   	610.288900  	0           	                	;
 Junction_3438   	608.202800  	0           	                	;
 Junction_3439   	608.202800  	0           	                	;
 Junction_3440   	605.767900  	0           	                	;
 Junction_3441   	605.767900  	0           	                	;
 Junction_3442   	605.855600  	0           	                	;
 Junction_3443   	605.855600  	0           	                	;
 Junction_3444   	605.855600  	0           	                	;
 Junction_3445   	609.756800  	0           	                	;
 Junction_3446   	609.756800  	0           	                	;
 Junction_3447   	612.691300  	0           	                	;
 Junction_3448   	612.691300  	0           	                	;
 Junction_3449   	614.520600  	0           	                	;
 Junction_3450   	589.214400  	0           	                	;
 Junction_3451   	597.726100  	0           	                	;
 Junction_3452   	597.726100  	0           	                	;
 Junction_3453   	596.511300  	0           	                	;
 Junction_3454   	599.274200  	0           	                	;
 Junction_3455   	596.740100  	0.000223    	Utenze_CSA      	;
 Junction_3456   	599.299000  	0           	                	;
 Junction_3457   	599.299000  	0           	                	;
 Junction_3458   	599.299000  	0           	                	;
 Junction_3459   	600.621100  	0           	                	;
 Junction_3460   	603.193600  	0           	                	;
 Junction_3461   	603.193600  	0           	                	;
 Junction_3462   	603.193600  	0           	                	;
 Junction_3463   	603.893600  	0           	                	;
 Junction_3464   	603.893600  	0           	                	;
 Junction_3465   	605.855600  	0           	                	;
 Junction_3466   	605.855600  	0           	                	;
 Junction_3467   	605.855600  	0           	                	;
 Junction_3468   	606.811800  	0.000891    	Utenze_CSA      	;
 Junction_3469   	609.307100  	0           	                	;
 Junction_3470   	609.307100  	0           	                	;
 Junction_3471   	610.725400  	0           	                	;
 Junction_3477   	646.465200  	0           	                	;
 Junction_3478   	602.374500  	0           	                	;
 Junction_3479   	598.875200  	0           	                	;
 Junction_3480   	602.538300  	0           	                	;
 Junction_3481   	602.538300  	0           	                	;
 Junction_3482   	603.823900  	0           	                	;
 Junction_3483   	605.173200  	0           	                	;
 Junction_3484   	606.669800  	0           	                	;
 Junction_3485   	609.314000  	0           	                	;
 Junction_3486   	609.934800  	0           	                	;
 Junction_3487   	614.310500  	0           	                	;
 Junction_3488   	610.347000  	0           	                	;
 Junction_3489   	611.341400  	0           	                	;
 Junction_3490   	611.341400  	0           	                	;
 Junction_3491   	609.656900  	0           	                	;
 Junction_3492   	611.194200  	0           	                	;
 Junction_3493   	611.194200  	0           	                	;
 Junction_3494   	611.194200  	0           	                	;
 Junction_3496   	612.635700  	0           	                	;
 Junction_3497   	612.635700  	0           	                	;
 Junction_3498   	612.635700  	0           	                	;
 Junction_3499   	612.635700  	0           	                	;
 Junction_3500   	612.635700  	0           	                	;
 Junction_3501   	612.729000  	0           	                	;
 Junction_3502   	612.729000  	0           	                	;
 Junction_3503   	612.729000  	0           	                	;
 Junction_3504   	612.729000  	0           	                	;
 Junction_3505   	612.729000  	0           	                	;
 Junction_3506   	613.080800  	0           	                	;
 Junction_3507   	613.854100  	0           	                	;
 Junction_3508   	616.867200  	0           	                	;
 Junction_3509   	616.551800  	0           	                	;
 Junction_3510   	616.551800  	0           	                	;
 Junction_3511   	627.533100  	0           	                	;
 Junction_3512   	639.830200  	0           	                	;
 Junction_3595   	649.405800  	0           	                	;

[RESERVOIRS]
;ID              	Head        	Pattern         
 S_Paterno       	649.000000  	                	;

[TANKS]
;ID              	Elevation   	InitLevel   	MinLevel    	MaxLevel    	Diameter    	MinVol      	VolCurve        	Overflow

[PIPES]
;ID              	Node1           	Node2           	Length      	Diameter    	Roughness   	MinorLoss   	Status
 1000            	Junction_1368   	Junction_3461   	1.059105    	83.100000   	150.000000  	0.000000    	Open  	;In servizio
 1001            	Junction_1365   	Junction_1370   	7.277840    	32.600000   	150.000000  	0.000000    	Open  	;In servizio
 1002            	Junction_1367   	Junction_1371   	16.176855   	20.400000   	150.000000  	0.000000    	Open  	;In servizio
 1003            	Junction_1369   	Junction_1372   	15.080078   	20.400000   	150.000000  	0.000000    	Open  	;In servizio
 1004            	Junction_1373   	Junction_1374   	7.104557    	20.400000   	150.000000  	0.000000    	Open  	;In servizio
 1005            	Junction_1375   	Junction_3463   	0.729902    	20.400000   	150.000000  	0.000000    	Open  	;In servizio
 1006            	Junction_1377   	Junction_1378   	0.038493    	20.400000   	150.000000  	0.000000    	Open  	;In servizio
 1007            	Junction_1379   	Junction_1380   	3.119242    	20.400000   	150.000000  	0.000000    	Open  	;In servizio
 1008            	Junction_1381   	Junction_3443   	0.296992    	20.400000   	150.000000  	0.000000    	Open  	;In servizio
 1009            	Junction_1383   	Junction_3442   	0.299399    	20.400000   	150.000000  	0.000000    	Open  	;In servizio
 1010            	Junction_1385   	Junction_3466   	2.713096    	20.400000   	150.000000  	0.000000    	Open  	;In servizio
 1011            	Junction_1387   	Junction_1388   	7.289675    	20.400000   	150.000000  	0.000000    	Open  	;In servizio
 1012            	Junction_1387   	Junction_1389   	3.532992    	20.400000   	150.000000  	0.000000    	Open  	;In servizio
 1013            	Junction_1390   	Junction_3467   	2.097984    	83.100000   	150.000000  	0.000000    	Open  	;In servizio
 1014            	Junction_1392   	Junction_1393   	4.190814    	20.400000   	150.000000  	0.000000    	Open  	;In servizio