; Filename: nodes_and_inps/10x10.inp
; WNTR: 1.4.0
; Created: 2025-10-20 16:59:01
[TITLE]
10x10 Grid Network with Central Reservoir R1 (replacing J55)

[JUNCTIONS]
;ID                      Elevation       Demand Pattern                 
 J1                                 0               0                            ;
 J2                                 0               0                            ;
 J3                                 0               0                            ;
 J4                                 0               0                            ;
 J5                                 0               0                            ;
 J6                                 0               0                            ;
 J7                                 0               0                            ;
 J8                                 0               0                            ;
 J9                                 0               0                            ;
 J10                                0               0                            ;
 J11                                0               0                            ;
 J12                                0               0                            ;
 J13                                0               0                            ;
 J14                                0               0                            ;
 J15                                0               0                            ;
 J16                                0               0                            ;
 J17                                0               0                            ;
 J18                                0               0                            ;
 J19                                0               0                            ;
 J20                                0               0                            ;
 J21                                0               0                            ;
 J22                                0               0                            ;
 J23                                0               0                            ;
 J24                                0               0                            ;
 J25                                0               0                            ;
 J26                                0               0                            ;
 J27                                0               0                            ;
 J28                                0               0                            ;
 J29                                0               0                            ;
 J30                                0               0                            ;
 J31                                0               0                            ;
 J32                                0               0                            ;
 J33                                0               0                            ;
 J34                                0               0                            ;
 J35                                0               0                            ;
 J36                                0               0                            ;
 J37                                0               0                            ;
 J38                                0               0                            ;
 J39                                0               0                            ;
 J40                                0               0                            ;
 J41                                0               0                            ;
 J42                                0               0                            ;
 J43                                0               0                            ;
 J44                                0               0                            ;
 J45                                0               0                            ;
 J46                                0               0                            ;
 J47                                0               0                            ;
 J48                                0               0                            ;
 J49                                0               0                            ;
 J50                                0               0                            ;
 J51                                0               0                            ;
 J52                                0               0                            ;
 J53                                0               0                            ;
 J54                                0               0                            ;
 J56                                0               0                            ;
 J57                                0               0                            ;
 J58                                0               0                            ;
 J59                                0               0                            ;
 J60                                0               0                            ;
 J61                                0               0                            ;
 J62                                0               0                            ;
 J63                                0               0                            ;
 J64                                0               0                            ;
 J65                                0               0                            ;
 J66                                0               0                            ;
 J67                                0               0                            ;
 J68                                0               0                            ;
 J69                                0               0                            ;
 J70                                0               0                            ;
 J71                                0               0                            ;
 J72                                0               0                            ;
 J73                                0               0                            ;
 J74                                0               0                            ;
 J75                                0               0                            ;
 J76                                0               0                            ;
 J77                                0               0                            ;
 J78                                0               0                            ;
 J79                                0               0                            ;
 J80                                0               0                            ;
 J81                                0               0                            ;
 J82                                0               0                            ;
 J83                                0               0                            ;
 J84                                0               0                            ;
 J85                                0               0                            ;
 J86                                0               0                            ;
 J87                                0               0                            ;
 J88                                0               0                            ;
 J89                                0               0                            ;
 J90                                0               0                            ;
 J91                                0               0                            ;
 J92                                0               0                            ;
 J93                                0               0                            ;
 J94                                0               0                            ;
 J95                                0               0                            ;
 J96                                0               0                            ;
 J97                                0               0                            ;
 J98                                0               0                            ;
 J99                                0               0                            ;
 J100                               0               0                            ;

[RESERVOIRS]
;ID                                   Head                  Pattern
 R1                               100                            ;

[TANKS]
;ID                              Elevation           Init Level            Min Level            Max Level             Diameter           Min Volume Volume Curve         Overflow            

[PIPES]
;ID                   Node1                Node2                              Length             Diameter            Roughness           Minor Loss               Status
 P1_2                 J1                   J2                                25              11             100               0                 Open   ;
 P1_11                J1                   J11                               25              11             100               0                 Open   ;
 P2_3                 J2                   J3                                25              11             100               0                 Open   ;
 P3_4                 J3                   J4                                25              11             100               0                 Open   ;
 P14_4                J14                  J4                                25              11             100               0                 Open   ;
 P5_6                 J5                   J6                                25              11             100               0                 Open   ;
 P15_5                J15                  J5                                25              11             100               0                 Open   ;
 P6_7                 J6                   J7                                25              11             100               0                 Open   ;
 P16_6                J16                  J6                                25              11             100               0                 Open   ;
 P7_8                 J7                   J8                                25              11             100               0                 Open   ;
 P17_7                J17                  J7                                25              11             100               0                 Open   ;
 P8_9                 J8                   J9                                25              11             100               0                 Open   ;
 P18_8                J18                  J8                                25              11             100               0                 Open   ;
 P10_9                J10                  J9                                25              11             100               0                 Open   ;
 P19_9                J19                  J9                                25              11             100               0                 Open   ;
 P10_20               J10                  J20                               25              11             100               0                 Open   ;
 P11_12               J11                  J12                               25              11             100               0                 Open   ;
 P11_21               J11                  J21                               25              11             100               0                 Open   ;
 P12_13               J12                  J13                               25              11             100               0                 Open   ;
 P12_22               J12                  J22                               25              11             100               0                 Open   ;
 P13_14               J13                  J14                               25              11             100               0                 Open   ;
 P13_23               J13                  J23                               25              11             100               0                 Open   ;
 P14_15               J14                  J15                               25              11             100               0                 Open   ;
 P14_24               J14                  J24                               25              11             100               0                 Open   ;
 P15_16               J15                  J16                               25              11             100               0                 Open   ;
 P15_25               J15                  J25                               25              11             100               0                 Open   ;
 P16_17               J16                  J17                               25              11             100               0                 Open   ;
 P16_26               J16                  J26                               25              11             100               0                 Open   ;
 P17_27               J17                  J27                               25              11             100               0                 Open   ;
 P18_19               J18                  J19                               25              11             100               0                 Open   ;
 P18_28               J18                  J28                               25              11             100               0                 Open   ;
 P19_29               J19                  J29                               25              11             100               0                 Open   ;
 P21_31               J21                  J31                               25              11             100               0                 Open   ;
 P22_23               J22                  J23                               25              11             100               0                 Open   ;
 P23_24               J23                  J24                               25              11             100               0                 Open   ;
 P24_25               J24                  J25                               25              11             100               0                 Open   ;
 P26_27               J26                  J27                               25              11             100               0                 Open   ;
 P27_37               J27                  J37                               25              11             100               0                 Open   ;
 P28_38               J28                  J38                               25              11             100               0                 Open   ;
 P30_40               J30                  J40                               25              11             100               0                 Open   ;
 P31_32               J31                  J32                               25              11             100               0                 Open   ;
 P31_41               J31                  J41                               25              11             100               0                 Open   ;
 P32_33               J32                  J33                               25              11             100               0                 Open   ;
 P32_42               J32                  J42                               25              11             100               0                 Open   ;
 P33_34               J33                  J34                               25              11             100               0                 Open   ;
 P34_35               J34                  J35                               25              11             100               0                 Open   ;
 P35_36               J35                  J36                               25              11             100               0                 Open   ;
 P35_45               J35                  J45                               25              11             100               0                 Open   ;
 P36_37               J36                  J37                               25              11             100               0                 Open   ;
 P36_46               J36                  J46                               25              11             100               0                 Open   ;
 P37_38               J37                  J38                               25              11             100               0                 Open   ;
 P37_47               J37                  J47                               25              11             100               0                 Open   ;
 P38_39               J38                  J39                               25              11             100               0                 Open   ;
 P38_48               J38                  J48                               25              11             100               0                 Open   ;
 P40_50               J40                  J50                               25              11             100               0                 Open   ;
 P41_42               J41                  J42                               25              11             100               0                 Open   ;
 P41_51               J41                  J51                               25              11             100               0                 Open   ;
 P42_43               J42                  J43                               25              11             100               0                 Open   ;
 P42_52               J42                  J52                               25              11             100               0                 Open   ;
 P43_53               J43                  J53                               25              11             100               0                 Open   ;
 P44_45               J44                  J45                               25              11             100               0                 Open   ;
 P44_54               J44                  J54                               25              11             100               0                 Open   ;
 P45_46               J45                  J46                               25              11             100               0                 Open   ;
 P45_R1               J45                  R1                                25              11             100               0                 Open   ;
 P46_47               J46                  J47                               25              11             100               0                 Open   ;
 P46_56               J46                  J56                               25              11             100               0                 Open   ;
 P47_48               J47                  J48                               25              11             100               0                 Open   ;
 P47_57               J47                  J57                               25              11             100               0                 Open   ;
 P48_49               J48                  J49                               25              11             100               0                 Open   ;
 P48_58               J48                  J58                               25              11             100               0                 Open   ;
 P49_50               J49                  J50                               25              11             100               0                 Open   ;
 P49_59               J49                  J59                               25              11             100               0                 Open   ;
 P50_60               J50                  J60                               25              11             100               0                 Open   ;
 P51_52               J51                  J52                               25              11             100               0                 Open   ;
 P51_61               J51                  J61                               25              11             100               0                 Open   ;
 P52_53               J52                  J53                               25              11             100               0                 Open   ;
 P52_62               J52                  J62                               25              11             100               0                 Open   ;
 P53_54               J53                  J54                               25              11             100               0                 Open   ;
 P54_R1               J54                  R1                                25              11             100               0                 Open   ;
 P54_64               J54                  J64                               25              11             100               0                 Open   ;
 P56_57               J56                  J57                               25              11             100               0                 Open   ;
 P56_66               J56                  J66                               25              11             100               0                 Open   ;
 P57_67               J57                  J67                               25              11             100               0                 Open   ;
 P58_59               J58                  J59                               25              11             100               0                 Open   ;
 P58_68               J58                  J68                               25              11             100               0                 Open   ;
 P59_60               J59                  J60                               25              11             100               0                 Open   ;
 P59_69               J59                  J69                               25              11             100               0                 Open   ;
 P60_70               J60                  J70                               25              11             100               0                 Open   ;
 P61_62               J61                  J62                               25              11             100               0                 Open   ;
 P61_71               J61                  J71                               25              11             100               0                 Open   ;
 P62_63               J62                  J63                               25              11             100               0                 Open   ;
 P62_72               J62                  J72                               25              11             100               0                 Open   ;
 P63_64               J63                  J64                               25              11             100               0                 Open   ;
 P63_73               J63                  J73                               25              11             100               0                 Open   ;
 P64_65               J64                  J65                               25              11             100               0                 Open   ;
 P64_74               J64                  J74                               25              11             100               0                 Open   ;
 P65_66               J65                  J66                               25              11             100               0                 Open   ;
 P65_75               J65                  J75                               25              11             100               0                 Open   ;
 P66_67               J66                  J67                               25              11             100               0                 Open   ;
 P66_76               J66                  J76                               25              11             100               0                 Open   ;
 P67_77               J67                  J77                               25              11             100               0                 Open   ;
 P68_78               J68                  J78                               25              11             100               0                 Open   ;
 P69_70               J69                  J70                               25              11             100               0                 Open   ;
 P69_79               J69                  J79                               25              11             100               0                 Open   ;
 P70_80               J70                  J80                               25              11             100               0                 Open   ;
 P71_72               J71                  J72                               25              11             100               0                 Open   ;
 P71_81               J71                  J81                               25              11             100               0                 Open   ;
 P72_73               J72                  J73                               25              11             100               0                 Open   ;
 P72_82               J72                  J82                               25              11             100               0                 Open   ;
 P73_74               J73                  J74                               25              11             100               0                 Open   ;
 P73_83               J73                  J83                               25              11             100               0                 Open   ;
 P74_75               J74                  J75                               25              11             100               0                 Open   ;
 P74_84               J74                  J84                               25              11             100               0                 Open   ;
 P75_76               J75                  J76                               25              11             100               0                 Open   ;
 P76_77               J76                  J77                               25              11             100               0                 Open   ;
 P76_86               J76                  J86                               25              11             100               0                 Open   ;
 P77_78               J77                  J78                               25              11             100               0                 Open   ;
 P77_87               J77                  J87                               25              11             100               0                 Open   ;
 P78_79               J78                  J79                               25              11             100               0                 Open   ;
 P78_88               J78                  J88                               25              11             100               0                 Open   ;
 P79_89               J79                  J89                               25              11             100               0                 Open   ;
 P80_90               J80                  J90                               25              11             100               0                 Open   ;
 P81_82               J81                  J82                               25              11             100               0                 Open   ;
 P81_91               J81                  J91                               25              11             100               0                 Open   ;
 P82_83               J82                  J83                               25              11             100               0                 Open   ;
 P83_93               J83                  J93                               25              11             100               0                 Open   ;
 P84_85               J84                  J85                               25              11             100               0                 Open   ;
 P84_94               J84                  J94                               25              11             100               0                 Open   ;
 P85_86               J85                  J86                               25              11             100               0                 Open   ;
 P86_87               J86                  J87                               25              11             100               0                 Open   ;
 P86_96               J86                  J96                               25              11             100               0                 Open   ;
 P87_88               J87                  J88                               25              11             100               0                 Open   ;
 P87_97               J87                  J97                               25              11             100               0                 Open   ;
 P88_89               J88                  J89                               25              11             100               0                 Open   ;
 P88_98               J88                  J98                               25              11             100               0                 Open   ;
 P89_90               J89                  J90                               25              11             100               0                 Open   ;
 P89_99               J89                  J99                               25              11             100               0                 Open   ;